@<TRIPOS>MOLECULE
3R136
137   139    1
SMALL
USER_CHARGES


@<TRIPOS>ATOM
      1 CA         28.7397   16.0796    0.5781 C.3       0 UNK        -0.1979 
      2 C          29.6931   17.2490    0.3806 C.2       0 UNK         0.4864 
      3 O          30.9099   17.0620    0.4308 O.2       0 UNK        -0.5359 
      4 N          29.1509   18.4485    0.1517 N.am      1 UNK        -0.4318 
      5 CA         29.8882   19.6901   -0.0745 C.3       1 UNK         0.0824 
      6 C6         30.4894   20.2872    1.2292 C.3       12 UNK        -0.0944 
      7 S7         29.2618   20.6938    2.5233 S.3       12 UNK        -0.2672 
      8 C8         30.3311   21.3788    3.8286 C.3       12 UNK         0.0333 
      9 C9         30.4110   22.8987    3.7659 C.ar      12 UNK        -0.0807 
     10 C10        31.2284   23.5264    2.8211 C.ar      12 UNK        -0.0894 
     11 C11        31.3174   24.9196    2.7719 C.ar      12 UNK        -0.0804 
     12 C12        30.5863   25.6896    3.6819 C.ar      12 UNK        -0.0824 
     13 C13        29.7922   25.0755    4.6546 C.ar      12 UNK        -0.0762 
     14 C14        29.6975   23.6799    4.6826 C.ar      12 UNK        -0.0782 
     15 C15        29.0700   25.9159    5.6985 C.3       12 UNK         0.0230 
     16 S16        27.3486   26.2352    5.2121 S.3       12 UNK        -0.2608 
     17 C17        27.2193   28.0490    5.4121 C.3       12 UNK        -0.0989 
     18 CA         27.9161   28.8502    4.2815 C.3       5 UNK         0.0716 
     19 N          27.5694   28.3356    2.9584 N.am      5 UNK        -0.4135 
     20 C          28.2069   28.6176    1.8197 C.2       4 UNK         0.5031 
     21 O          29.2066   29.3343    1.7555 O.2       4 UNK        -0.5229 
     22 CA         27.6507   27.9253    0.5638 C.3       4 UNK         0.0329 
     23 CB         28.2978   28.4126   -0.7443 C.3       4 UNK        -0.2001 
     24 N          27.8162   26.4755    0.6805 N.am      4 UNK        -0.4303 
     25 C          26.9841   25.6641    1.3473 C.2       3 UNK         0.5044 
     26 O          25.9410   26.0595    1.8729 O.2       3 UNK        -0.5152 
     27 CA         27.4007   24.1859    1.4818 C.3       3 UNK         0.0319 
     28 CB         26.2047   23.2543    1.7681 C.3       3 UNK        -0.2001 
     29 N          28.1919   23.6722    0.3572 N.am      3 UNK        -0.4354 
     30 C          27.8329   23.6191   -0.9361 C.2       2 UNK         0.4964 
     31 O          26.7838   24.0794   -1.3870 O.2       2 UNK        -0.5047 
     32 CA         28.8117   22.9126   -1.8926 C.3       2 UNK         0.0288 
     33 CB         29.8150   23.9195   -2.4790 C.3       2 UNK        -0.2113 
     34 N          29.5418   21.8079   -1.2604 N.am      2 UNK        -0.4145 
     35 C          28.9704   20.6773   -0.8181 C.2       1 UNK         0.5006 
     36 O          27.7733   20.4094   -0.9673 O.2       1 UNK        -0.5103 
     37 C          27.5836   30.3531    4.3750 C.2       5 UNK         0.5055 
     38 O          26.6564   30.8158    3.7057 O.2       5 UNK        -0.5220 
     39 N          28.3479   31.0896    5.1919 N.am      6 UNK        -0.4450 
     40 CA         28.2929   32.5392    5.4382 C.3       6 UNK         0.0367 
     41 CB         26.8964   33.0110    5.8890 C.3       6 UNK        -0.1929 
     42 C          28.8339   33.3990    4.2812 C.2       6 UNK         0.5070 
     43 O          29.4351   34.4391    4.5541 O.2       6 UNK        -0.5237 
     44 N          28.6642   32.9515    3.0292 N.am      7 UNK        -0.4739 
     45 CA         29.2323   33.5435    1.8146 C.3       7 UNK         0.0276 
     46 CB         28.6612   32.8126    0.5868 C.3       7 UNK        -0.1927 
     47 C          30.7690   33.4754    1.8476 C.2       7 UNK         0.5013 
     48 O          31.3368   32.4206    1.5586 O.2       7 UNK        -0.5193 
     49 N          31.3974   34.5812    2.2774 N.am      8 UNK        -0.4253 
     50 CA         32.8133   34.6996    2.6547 C.3       8 UNK         0.0242 
     51 CB         33.7285   34.6251    1.4156 C.3       8 UNK        -0.2000 
     52 C          33.1899   33.6851    3.7539 C.2       8 UNK         0.4948 
     53 O          34.1870   32.9712    3.6310 O.2       8 UNK        -0.5275 
     54 N          32.3281   33.5995    4.7788 N.am      9 UNK        -0.4246 
     55 CA         32.3036   32.6352    5.8858 C.3       9 UNK         0.0261 
     56 CB         33.6062   32.6485    6.7097 C.3       9 UNK        -0.1959 
     57 C          31.9232   31.2105    5.4473 C.2       9 UNK         0.5033 
     58 O          31.0211   30.6232    6.0487 O.2       9 UNK        -0.5390 
     59 N          32.5803   30.6840    4.4099 N.am      10 UNK        -0.4215 
     60 CA         32.3455   29.3503    3.8721 C.3       10 UNK         0.0240 
     61 CB         32.9850   28.2926    4.7973 C.3       10 UNK        -0.1982 
     62 C          32.8930   29.2671    2.4432 C.2       10 UNK         0.4970 
     63 O          34.1107   29.1924    2.2703 O.2       10 UNK        -0.4916 
     64 N          31.9828   29.2404    1.4627 N.am      11 UNK        -0.4279 
     65 CA         32.2319   28.9824    0.0345 C.3       11 UNK         0.1003 
     66 C          33.1948   29.9914   -0.6580 C.2       11 UNK         0.5709 
     67 N          33.1869   31.2585   -0.2692 N.am      11 UNK        -0.7358 
     68 O          33.9378   29.6390   -1.5721 O.2       11 UNK        -0.4999 
     69 C69        32.5783   27.4913   -0.2562 C.3       12 UNK        -0.0954 
     70 S70        31.3264   26.3267    0.3910 S.3       12 UNK        -0.2268 
     71 C71        32.2446   25.5922    1.7729 C.3       12 UNK         0.0203 
     72 H72        28.9181   15.3172   -0.1797 H         1 UNK         0.0888 
     73 H73        28.8959   15.6302    1.5584 H         1 UNK         0.0888 
     74 H74        27.6968   16.3888    0.5097 H         1 UNK         0.0888 
     75 H75        28.1473   18.5609    0.0703 H         1 UNK         0.3017 
     76 H76        30.7093   19.4646   -0.7587 H         1 UNK         0.0873 
     77 H77        31.2022   19.5791    1.6545 H         1 UNK         0.0745 
     78 H78        31.0728   21.1768    0.9968 H         1 UNK         0.0745 
     79 H79        31.3317   20.9492    3.7613 H         1 UNK         0.0705 
     80 H80        29.9354   21.0638    4.7954 H         1 UNK         0.0705 
     81 H81        31.8124   22.9323    2.1338 H         1 UNK         0.1334 
     82 H82        30.6542   26.7673    3.6457 H         1 UNK         0.1417 
     83 H83        29.0773   23.2027    5.4295 H         1 UNK         0.1562 
     84 H84        29.6045   26.8536    5.8572 H         1 UNK         0.0748 
     85 H85        29.0758   25.4015    6.6607 H         1 UNK         0.0748 
     86 H86        27.6224   28.3291    6.3874 H         1 UNK         0.0940 
     87 H87        26.1549   28.2912    5.4476 H         1 UNK         0.0940 
     88 H88        28.9950   28.7379    4.3996 H         1 UNK         0.0703 
     89 H89        26.7805   27.7007    2.9166 H         1 UNK         0.3081 
     90 H90        26.5875   28.1687    0.5074 H         1 UNK         0.0719 
     91 H91        29.3372   28.1028   -0.8233 H         1 UNK         0.0809 
     92 H92        27.7705   28.0163   -1.6121 H         1 UNK         0.0809 
     93 H93        28.2700   29.5007   -0.8168 H         1 UNK         0.0809 
     94 H94        28.6783   26.0887    0.3221 H         1 UNK         0.2990 
     95 H95        28.0573   24.1460    2.3509 H         1 UNK         0.0690 
     96 H96        26.5288   22.2203    1.8872 H         1 UNK         0.0788 
     97 H97        25.4684   23.2852    0.9645 H         1 UNK         0.0788 
     98 H98        25.6967   23.5408    2.6898 H         1 UNK         0.0788 
     99 H99        29.0840   23.2724    0.6104 H         1 UNK         0.2993 
    100 H100       28.2214   22.4991   -2.7136 H         1 UNK         0.0949 
    101 H101       30.4735   24.3291   -1.7127 H         1 UNK         0.0767 
    102 H102       30.4386   23.4573   -3.2445 H         1 UNK         0.0767 
    103 H103       29.2987   24.7588   -2.9476 H         1 UNK         0.0767 
    104 H104       30.5341   21.9403   -1.1277 H         1 UNK         0.3013 
    105 H105       29.1487   30.6399    5.6331 H         1 UNK         0.3121 
    106 H106       28.9685   32.7054    6.2786 H         1 UNK         0.0774 
    107 H107       26.9291   34.0512    6.2156 H         1 UNK         0.0815 
    108 H108       26.1619   32.9527    5.0856 H         1 UNK         0.0815 
    109 H109       26.5279   32.4197    6.7270 H         1 UNK         0.0815 
    110 H110       28.1401   32.0924    2.9122 H         1 UNK         0.2987 
    111 H111       28.9231   34.5896    1.7631 H         1 UNK         0.0949 
    112 H112       29.0626   33.2313   -0.3369 H         1 UNK         0.0806 
    113 H113       28.9092   31.7505    0.5957 H         1 UNK         0.0806 
    114 H114       27.5759   32.9017    0.5399 H         1 UNK         0.0806 
    115 H115       30.8193   35.3728    2.5267 H         1 UNK         0.3010 
    116 H116       32.9371   35.6897    3.0964 H         1 UNK         0.0829 
    117 H117       33.4379   35.3565    0.6616 H         1 UNK         0.0813 
    118 H118       34.7652   34.8300    1.6854 H         1 UNK         0.0813 
    119 H119       33.7048   33.6394    0.9545 H         1 UNK         0.0813 
    120 H120       31.5012   34.1869    4.7263 H         1 UNK         0.3038 
    121 H121       31.5060   32.9794    6.5460 H         1 UNK         0.0769 
    122 H122       33.5100   32.0151    7.5925 H         1 UNK         0.0811 
    123 H123       33.8456   33.6537    7.0565 H         1 UNK         0.0811 
    124 H124       34.4594   32.2776    6.1414 H         1 UNK         0.0811 
    125 H125       33.2850   31.2516    3.9424 H         1 UNK         0.3204 
    126 H126       31.2694   29.1724    3.8334 H         1 UNK         0.0748 
    127 H127       32.9122   27.2914    4.3764 H         1 UNK         0.0771 
    128 H128       34.0436   28.4951    4.9640 H         1 UNK         0.0771 
    129 H129       32.4946   28.2656    5.7705 H         1 UNK         0.0771 
    130 H130       30.9971   29.3605    1.6933 H         1 UNK         0.2980 
    131 H131       31.2771   29.1805   -0.4492 H         1 UNK         0.0545 
    132 H132       32.5470   31.5736    0.4582 H         1 UNK         0.3459 
    133 H133       33.8024   31.9146   -0.7199 H         1 UNK         0.3459 
    134 H134       33.5627   27.2432    0.1438 H         1 UNK         0.0616 
    135 H135       32.6404   27.3223   -1.3325 H         1 UNK         0.0616 
    136 H136       32.9701   24.8810    1.3753 H         1 UNK         0.0634 
    137 H137       32.8238   26.3611    2.2810 H         1 UNK         0.0634 
@<TRIPOS>BOND
     1    1    2 1    
     2    1   72 1    
     3    1   73 1    
     4    1   74 1    
     5    2    3 2    
     6    2    4 am   BACKBONE|DICT|INTERRES
     7    4    5 1    
     8    4   75 1    
     9    5    6 1    
    10    5   35 1    
    11    5   76 1    
    12    6    7 1    
    13    6   77 1    
    14    6   78 1    
    15    7    8 1    
    16    8    9 1    
    17    8   79 1    
    18    8   80 1    
    19    9   10 ar   
    20    9   14 ar   
    21   10   11 ar   
    22   10   81 1    
    23   11   12 ar   
    24   11   71 1    
    25   12   13 ar   
    26   12   82 1    
    27   13   14 ar   
    28   13   15 1    
    29   14   83 1    
    30   15   16 1    
    31   15   84 1    
    32   15   85 1    
    33   16   17 1    
    34   17   18 1    
    35   17   86 1    
    36   17   87 1    
    37   18   19 1    
    38   18   37 1    
    39   18   88 1    
    40   19   20 am   BACKBONE|DICT|INTERRES
    41   19   89 1    
    42   20   21 2    
    43   20   22 1    
    44   22   23 1    
    45   22   24 1    
    46   22   90 1    
    47   23   91 1    
    48   23   92 1    
    49   23   93 1    
    50   24   25 am   BACKBONE|DICT|INTERRES
    51   24   94 1    
    52   25   26 2    
    53   25   27 1    
    54   27   28 1    
    55   27   29 1    
    56   27   95 1    
    57   28   96 1    
    58   28   97 1    
    59   28   98 1    
    60   29   30 am   BACKBONE|DICT|INTERRES
    61   29   99 1    
    62   30   31 2    
    63   30   32 1    
    64   32   33 1    
    65   32   34 1    
    66   32  100 1    
    67   33  101 1    
    68   33  102 1    
    69   33  103 1    
    70   34   35 am   BACKBONE|DICT|INTERRES
    71   34  104 1    
    72   35   36 2    
    73   37   38 2    
    74   37   39 am   BACKBONE|DICT|INTERRES
    75   39   40 1    
    76   39  105 1    
    77   40   41 1    
    78   40   42 1    
    79   40  106 1    
    80   41  107 1    
    81   41  108 1    
    82   41  109 1    
    83   42   43 2    
    84   42   44 am   BACKBONE|DICT|INTERRES
    85   44   45 1    
    86   44  110 1    
    87   45   46 1    
    88   45   47 1    
    89   45  111 1    
    90   46  112 1    
    91   46  113 1    
    92   46  114 1    
    93   47   48 2    
    94   47   49 am   BACKBONE|DICT|INTERRES
    95   49   50 1    
    96   49  115 1    
    97   50   51 1    
    98   50   52 1    
    99   50  116 1    
   100   51  117 1    
   101   51  118 1    
   102   51  119 1    
   103   52   53 2    
   104   52   54 am   BACKBONE|DICT|INTERRES
   105   54   55 1    
   106   54  120 1    
   107   55   56 1    
   108   55   57 1    
   109   55  121 1    
   110   56  122 1    
   111   56  123 1    
   112   56  124 1    
   113   57   58 2    
   114   57   59 am   BACKBONE|DICT|INTERRES
   115   59   60 1    
   116   59  125 1    
   117   60   61 1    
   118   60   62 1    
   119   60  126 1    
   120   61  127 1    
   121   61  128 1    
   122   61  129 1    
   123   62   63 2    
   124   62   64 am   BACKBONE|DICT|INTERRES
   125   64   65 1    
   126   64  130 1    
   127   65   66 1    
   128   65   69 1    
   129   65  131 1    
   130   66   67 am   BACKBONE|DICT|INTERRES
   131   66   68 2    
   132   67  132 1    
   133   67  133 1    
   134   69   70 1    
   135   69  134 1    
   136   69  135 1    
   137   70   71 1    
   138   71  136 1    
   139   71  137 1    
@<TRIPOS>SUBSTRUCTURE
     1 UNK         1 GROUP             0       ****    0 ROOT    
