@<TRIPOS>MOLECULE
3R136
137   139    1
SMALL
USER_CHARGES


@<TRIPOS>ATOM
      1 CA         26.3622   17.6010    2.2628 C.3       0 UNK        -0.1979 
      2 C          26.7910   18.7579    1.3722 C.2       0 UNK         0.4864 
      3 O          26.5677   18.7127    0.1610 O.2       0 UNK        -0.5359 
      4 N          27.4126   19.7877    1.9604 N.am      1 UNK        -0.4318 
      5 CA         27.8555   21.0046    1.2721 C.3       1 UNK         0.0824 
      6 C6         28.8119   21.8476    2.1495 C.3       12 UNK        -0.0944 
      7 S7         30.3355   20.9542    2.5938 S.3       12 UNK        -0.2672 
      8 C8         31.2578   22.2664    3.4716 C.3       12 UNK         0.0333 
      9 C9         31.9264   23.3347    2.5989 C.ar      12 UNK        -0.0807 
     10 C10        32.6604   24.3381    3.2406 C.ar      12 UNK        -0.0894 
     11 C11        33.3258   25.3239    2.5068 C.ar      12 UNK        -0.0804 
     12 C12        33.2464   25.3126    1.1113 C.ar      12 UNK        -0.0824 
     13 C13        32.5185   24.3190    0.4489 C.ar      12 UNK        -0.0762 
     14 C14        31.8641   23.3358    1.1975 C.ar      12 UNK        -0.0782 
     15 C15        32.4955   24.2524   -1.0751 C.3       12 UNK         0.0230 
     16 S16        31.9670   25.8023   -1.8741 S.3       12 UNK        -0.2608 
     17 C17        30.1965   25.8884   -1.4441 C.3       12 UNK        -0.0989 
     18 CA         29.8221   27.2807   -0.8756 C.3       5 UNK         0.0716 
     19 N          28.4104   27.6032   -1.0837 N.am      5 UNK        -0.4135 
     20 C          27.9327   28.8438   -1.2630 C.2       4 UNK         0.5031 
     21 O          28.6411   29.8460   -1.3625 O.2       4 UNK        -0.5229 
     22 CA         26.4034   29.0030   -1.3504 C.3       4 UNK         0.0329 
     23 CB         25.9393   28.9388   -2.8145 C.3       4 UNK        -0.2001 
     24 N          25.6777   28.0000   -0.5691 N.am      4 UNK        -0.4303 
     25 C          25.6538   27.9500    0.7705 C.2       3 UNK         0.5044 
     26 O          26.1569   28.8059    1.4967 O.2       3 UNK        -0.5152 
     27 CA         24.9766   26.7237    1.4101 C.3       3 UNK         0.0319 
     28 CB         23.5302   27.0571    1.8093 C.3       3 UNK        -0.2001 
     29 N          24.9819   25.5193    0.5681 N.am      3 UNK        -0.4354 
     30 C          26.0828   24.8858    0.1422 C.2       2 UNK         0.4964 
     31 O          27.2315   25.2841    0.3530 O.2       2 UNK        -0.5047 
     32 CA         25.8770   23.6267   -0.7107 C.3       2 UNK         0.0288 
     33 CB         26.1240   23.9439   -2.1949 C.3       2 UNK        -0.2113 
     34 N          26.8029   22.5806   -0.2789 N.am      2 UNK        -0.4145 
     35 C          26.6548   21.8732    0.8489 C.2       1 UNK         0.5006 
     36 O          25.6533   21.9320    1.5689 O.2       1 UNK        -0.5103 
     37 C          30.1630   27.4137    0.6172 C.2       5 UNK         0.5055 
     38 O          31.0849   28.1498    0.9678 O.2       5 UNK        -0.5220 
     39 N          29.3636   26.7605    1.4735 N.am      6 UNK        -0.4450 
     40 CA         29.4813   26.7521    2.9344 C.3       6 UNK         0.0367 
     41 CB         28.7473   25.5167    3.4837 C.3       6 UNK        -0.1929 
     42 C          29.0151   28.0607    3.6095 C.2       6 UNK         0.5070 
     43 O          28.4387   28.0234    4.6989 O.2       6 UNK        -0.5237 
     44 N          29.2868   29.2066    2.9760 N.am      7 UNK        -0.4739 
     45 CA         29.0156   30.5518    3.4771 C.3       7 UNK         0.0276 
     46 CB         28.9115   31.5100    2.2765 C.3       7 UNK        -0.1927 
     47 C          30.1220   30.9567    4.4633 C.2       7 UNK         0.5013 
     48 O          30.9532   31.8054    4.1357 O.2       7 UNK        -0.5193 
     49 N          30.1341   30.2924    5.6278 N.am      8 UNK        -0.4253 
     50 CA         31.2063   30.2169    6.6326 C.3       8 UNK         0.0242 
     51 CB         30.6842   29.4288    7.8452 C.3       8 UNK        -0.2000 
     52 C          31.8627   31.5326    7.0951 C.2       8 UNK         0.4948 
     53 O          32.9720   31.4825    7.6276 O.2       8 UNK        -0.5275 
     54 N          31.2050   32.6784    6.8727 N.am      9 UNK        -0.4246 
     55 CA         31.7725   34.0184    7.0517 C.3       9 UNK         0.0261 
     56 CB         30.6604   35.0641    6.8695 C.3       9 UNK        -0.1959 
     57 C          32.9550   34.3208    6.1061 C.2       9 UNK         0.5033 
     58 O          33.7971   35.1498    6.4554 O.2       9 UNK        -0.5390 
     59 N          33.0036   33.6512    4.9459 N.am      10 UNK        -0.4215 
     60 CA         34.0933   33.7334    3.9693 C.3       10 UNK         0.0240 
     61 CB         33.6844   34.6579    2.8098 C.3       10 UNK        -0.1982 
     62 C          34.4921   32.3436    3.4499 C.2       10 UNK         0.4970 
     63 O          35.6854   32.0682    3.3244 O.2       10 UNK        -0.4916 
     64 N          33.4932   31.4967    3.1696 N.am      11 UNK        -0.4279 
     65 CA         33.6115   30.1127    2.6872 C.3       11 UNK         0.1003 
     66 C          34.2844   29.9558    1.2876 C.2       11 UNK         0.5709 
     67 N          34.2601   30.9774    0.4388 N.am      11 UNK        -0.7358 
     68 O          34.8263   28.9059    0.9524 O.2       11 UNK        -0.4999 
     69 C69        34.1604   29.1530    3.7880 C.3       12 UNK        -0.0954 
     70 S70        33.1193   27.6658    3.9664 S.3       12 UNK        -0.2268 
     71 C71        34.1622   26.3780    3.2180 C.3       12 UNK         0.0203 
     72 H72        26.6345   17.7664    3.3051 H         1 UNK         0.0888 
     73 H73        25.2818   17.4690    2.2116 H         1 UNK         0.0888 
     74 H74        26.8353   16.6769    1.9317 H         1 UNK         0.0888 
     75 H75        27.5636   19.7746    2.9586 H         1 UNK         0.3017 
     76 H76        28.3909   20.6995    0.3701 H         1 UNK         0.0873 
     77 H77        28.3146   22.1641    3.0689 H         1 UNK         0.0745 
     78 H78        29.0953   22.7607    1.6232 H         1 UNK         0.0745 
     79 H79        30.5885   22.7514    4.1838 H         1 UNK         0.0705 
     80 H80        32.0333   21.7803    4.0652 H         1 UNK         0.0705 
     81 H81        32.7272   24.3468    4.3202 H         1 UNK         0.1334 
     82 H82        33.7629   26.0715    0.5384 H         1 UNK         0.1417 
     83 H83        31.3271   22.5592    0.6734 H         1 UNK         0.1562 
     84 H84        31.8525   23.4429   -1.4243 H         1 UNK         0.0748 
     85 H85        33.5011   24.0117   -1.4225 H         1 UNK         0.0748 
     86 H86        29.9197   25.0809   -0.7628 H         1 UNK         0.0940 
     87 H87        29.6422   25.7003   -2.3651 H         1 UNK         0.0940 
     88 H88        30.4133   28.0277   -1.4110 H         1 UNK         0.0703 
     89 H89        27.7556   26.8449   -0.9416 H         1 UNK         0.3081 
     90 H90        26.1515   29.9894   -0.9543 H         1 UNK         0.0719 
     91 H91        26.4467   29.6937   -3.4171 H         1 UNK         0.0809 
     92 H92        26.1493   27.9678   -3.2649 H         1 UNK         0.0809 
     93 H93        24.8686   29.1254   -2.9003 H         1 UNK         0.0809 
     94 H94        25.2086   27.2683   -1.0824 H         1 UNK         0.2990 
     95 H95        25.5345   26.4894    2.3191 H         1 UNK         0.0690 
     96 H96        23.4967   27.9335    2.4584 H         1 UNK         0.0788 
     97 H97        23.0692   26.2346    2.3566 H         1 UNK         0.0788 
     98 H98        22.9098   27.2727    0.9385 H         1 UNK         0.0788 
     99 H99        24.0781   25.1313    0.3369 H         1 UNK         0.2993 
    100 H100       24.8527   23.2661   -0.5916 H         1 UNK         0.0949 
    101 H101       25.9780   23.0608   -2.8173 H         1 UNK         0.0767 
    102 H102       25.4322   24.7077   -2.5527 H         1 UNK         0.0767 
    103 H103       27.1361   24.3123   -2.3694 H         1 UNK         0.0767 
    104 H104       27.6663   22.5049   -0.7963 H         1 UNK         0.3013 
    105 H105       28.5952   26.2124    1.0908 H         1 UNK         0.3121 
    106 H106       30.5374   26.6351    3.1789 H         1 UNK         0.0774 
    107 H107       28.8658   25.4329    4.5646 H         1 UNK         0.0815 
    108 H108       27.6789   25.5535    3.2695 H         1 UNK         0.0815 
    109 H109       29.1479   24.6036    3.0490 H         1 UNK         0.0815 
    110 H110       29.8423   29.1379    2.1293 H         1 UNK         0.2987 
    111 H111       28.0602   30.5608    4.0065 H         1 UNK         0.0949 
    112 H112       28.7137   32.5306    2.6065 H         1 UNK         0.0806 
    113 H113       29.8305   31.5270    1.6889 H         1 UNK         0.0806 
    114 H114       28.0977   31.2191    1.6113 H         1 UNK         0.0806 
    115 H115       29.4045   29.5948    5.7306 H         1 UNK         0.3010 
    116 H116       32.0046   29.6305    6.1741 H         1 UNK         0.0829 
    117 H117       29.8418   29.9340    8.3193 H         1 UNK         0.0813 
    118 H118       30.3589   28.4282    7.5589 H         1 UNK         0.0813 
    119 H119       31.4609   29.3082    8.6020 H         1 UNK         0.0813 
    120 H120       30.3043   32.6224    6.4197 H         1 UNK         0.3038 
    121 H121       32.1464   34.0883    8.0754 H         1 UNK         0.0769 
    122 H122       30.2332   35.0284    5.8665 H         1 UNK         0.0811 
    123 H123       31.0452   36.0733    7.0239 H         1 UNK         0.0811 
    124 H124       29.8525   34.9146    7.5860 H         1 UNK         0.0811 
    125 H125       32.2567   32.9888    4.7474 H         1 UNK         0.3204 
    126 H126       34.9817   34.1548    4.4450 H         1 UNK         0.0748 
    127 H127       34.4745   34.7195    2.0601 H         1 UNK         0.0771 
    128 H128       32.7818   34.3048    2.3095 H         1 UNK         0.0771 
    129 H129       33.4944   35.6714    3.1636 H         1 UNK         0.0771 
    130 H130       32.5340   31.7943    3.3282 H         1 UNK         0.2980 
    131 H131       32.5734   29.8398    2.4966 H         1 UNK         0.0545 
    132 H132       34.6919   30.8749   -0.4656 H         1 UNK         0.3459 
    133 H133       33.8164   31.8445    0.6934 H         1 UNK         0.3459 
    134 H134       34.1517   29.6431    4.7628 H         1 UNK         0.0616 
    135 H135       35.2036   28.8838    3.6155 H         1 UNK         0.0616 
    136 H136       34.8688   26.8230    2.5178 H         1 UNK         0.0634 
    137 H137       34.7636   25.9106    3.9988 H         1 UNK         0.0634 
@<TRIPOS>BOND
     1    1    2 1    
     2    1   72 1    
     3    1   73 1    
     4    1   74 1    
     5    2    3 2    
     6    2    4 am   BACKBONE|DICT|INTERRES
     7    4    5 1    
     8    4   75 1    
     9    5    6 1    
    10    5   35 1    
    11    5   76 1    
    12    6    7 1    
    13    6   77 1    
    14    6   78 1    
    15    7    8 1    
    16    8    9 1    
    17    8   79 1    
    18    8   80 1    
    19    9   10 ar   
    20    9   14 ar   
    21   10   11 ar   
    22   10   81 1    
    23   11   12 ar   
    24   11   71 1    
    25   12   13 ar   
    26   12   82 1    
    27   13   14 ar   
    28   13   15 1    
    29   14   83 1    
    30   15   16 1    
    31   15   84 1    
    32   15   85 1    
    33   16   17 1    
    34   17   18 1    
    35   17   86 1    
    36   17   87 1    
    37   18   19 1    
    38   18   37 1    
    39   18   88 1    
    40   19   20 am   BACKBONE|DICT|INTERRES
    41   19   89 1    
    42   20   21 2    
    43   20   22 1    
    44   22   23 1    
    45   22   24 1    
    46   22   90 1    
    47   23   91 1    
    48   23   92 1    
    49   23   93 1    
    50   24   25 am   BACKBONE|DICT|INTERRES
    51   24   94 1    
    52   25   26 2    
    53   25   27 1    
    54   27   28 1    
    55   27   29 1    
    56   27   95 1    
    57   28   96 1    
    58   28   97 1    
    59   28   98 1    
    60   29   30 am   BACKBONE|DICT|INTERRES
    61   29   99 1    
    62   30   31 2    
    63   30   32 1    
    64   32   33 1    
    65   32   34 1    
    66   32  100 1    
    67   33  101 1    
    68   33  102 1    
    69   33  103 1    
    70   34   35 am   BACKBONE|DICT|INTERRES
    71   34  104 1    
    72   35   36 2    
    73   37   38 2    
    74   37   39 am   BACKBONE|DICT|INTERRES
    75   39   40 1    
    76   39  105 1    
    77   40   41 1    
    78   40   42 1    
    79   40  106 1    
    80   41  107 1    
    81   41  108 1    
    82   41  109 1    
    83   42   43 2    
    84   42   44 am   BACKBONE|DICT|INTERRES
    85   44   45 1    
    86   44  110 1    
    87   45   46 1    
    88   45   47 1    
    89   45  111 1    
    90   46  112 1    
    91   46  113 1    
    92   46  114 1    
    93   47   48 2    
    94   47   49 am   BACKBONE|DICT|INTERRES
    95   49   50 1    
    96   49  115 1    
    97   50   51 1    
    98   50   52 1    
    99   50  116 1    
   100   51  117 1    
   101   51  118 1    
   102   51  119 1    
   103   52   53 2    
   104   52   54 am   BACKBONE|DICT|INTERRES
   105   54   55 1    
   106   54  120 1    
   107   55   56 1    
   108   55   57 1    
   109   55  121 1    
   110   56  122 1    
   111   56  123 1    
   112   56  124 1    
   113   57   58 2    
   114   57   59 am   BACKBONE|DICT|INTERRES
   115   59   60 1    
   116   59  125 1    
   117   60   61 1    
   118   60   62 1    
   119   60  126 1    
   120   61  127 1    
   121   61  128 1    
   122   61  129 1    
   123   62   63 2    
   124   62   64 am   BACKBONE|DICT|INTERRES
   125   64   65 1    
   126   64  130 1    
   127   65   66 1    
   128   65   69 1    
   129   65  131 1    
   130   66   67 am   BACKBONE|DICT|INTERRES
   131   66   68 2    
   132   67  132 1    
   133   67  133 1    
   134   69   70 1    
   135   69  134 1    
   136   69  135 1    
   137   70   71 1    
   138   71  136 1    
   139   71  137 1    
@<TRIPOS>SUBSTRUCTURE
     1 UNK         1 GROUP             0       ****    0 ROOT    
