@<TRIPOS>MOLECULE
3R136
137   139    1
SMALL
USER_CHARGES


@<TRIPOS>ATOM
      1 CA         25.0198   18.1790   -0.8154 C.3       0 UNK        -0.1979 
      2 C          26.4512   18.5679   -1.1549 C.2       0 UNK         0.4864 
      3 O          26.9283   18.2537   -2.2469 O.2       0 UNK        -0.5359 
      4 N          27.1414   19.2393   -0.2248 N.am      1 UNK        -0.4318 
      5 CA         28.4997   19.7630   -0.3957 C.3       1 UNK         0.0824 
      6 C6         29.1751   20.0834    0.9646 C.3       12 UNK        -0.0944 
      7 S7         28.1503   21.0333    2.1456 S.3       12 UNK        -0.2672 
      8 C8         28.5535   22.7437    1.6829 C.3       12 UNK         0.0333 
      9 C9         28.6494   23.6422    2.9036 C.ar      12 UNK        -0.0807 
     10 C10        29.8470   23.7222    3.6164 C.ar      12 UNK        -0.0894 
     11 C11        29.9653   24.5768    4.7150 C.ar      12 UNK        -0.0804 
     12 C12        28.8663   25.3442    5.1142 C.ar      12 UNK        -0.0824 
     13 C13        27.6617   25.2751    4.4044 C.ar      12 UNK        -0.0762 
     14 C14        27.5585   24.4172    3.3040 C.ar      12 UNK        -0.0782 
     15 C15        26.4631   26.1193    4.8138 C.3       12 UNK         0.0230 
     16 S16        26.1237   27.4328    3.5963 S.3       12 UNK        -0.2608 
     17 C17        27.1755   28.8017    4.1870 C.3       12 UNK        -0.0989 
     18 CA         28.6552   28.7127    3.7302 C.3       5 UNK         0.0716 
     19 N          28.7779   28.5261    2.2812 N.am      5 UNK        -0.4135 
     20 C          29.9149   28.2480    1.6325 C.2       4 UNK         0.5031 
     21 O          31.0164   28.1340    2.1770 O.2       4 UNK        -0.5229 
     22 CA         29.8078   28.1175    0.1058 C.3       4 UNK         0.0329 
     23 CB         30.2359   29.4231   -0.5811 C.3       4 UNK        -0.2001 
     24 N          30.6589   27.0297   -0.3714 N.am      4 UNK        -0.4303 
     25 C          30.3016   25.7414   -0.3780 C.2       3 UNK         0.5044 
     26 O          29.1776   25.3374   -0.0751 O.2       3 UNK        -0.5152 
     27 CA         31.4057   24.7416   -0.7671 C.3       3 UNK         0.0319 
     28 CB         32.2397   24.3534    0.4657 C.3       3 UNK        -0.2001 
     29 N          30.8791   23.5277   -1.3999 N.am      3 UNK        -0.4354 
     30 C          30.2959   23.4920   -2.6073 C.2       2 UNK         0.4964 
     31 O          30.1534   24.4838   -3.3243 O.2       2 UNK        -0.5047 
     32 CA         29.8269   22.1248   -3.1380 C.3       2 UNK         0.0288 
     33 CB         30.8227   21.5916   -4.1826 C.3       2 UNK        -0.2113 
     34 N          29.6444   21.1061   -2.0984 N.am      2 UNK        -0.4145 
     35 C          28.5296   20.9642   -1.3677 C.2       1 UNK         0.5006 
     36 O          27.5622   21.7269   -1.4407 O.2       1 UNK        -0.5103 
     37 C          29.4334   29.9488    4.2231 C.2       5 UNK         0.5055 
     38 O          29.7301   30.8462    3.4318 O.2       5 UNK        -0.5220 
     39 N          29.6946   30.0097    5.5367 N.am      6 UNK        -0.4450 
     40 CA         30.4166   31.1068    6.1951 C.3       6 UNK         0.0367 
     41 CB         30.6676   30.7397    7.6663 C.3       6 UNK        -0.1929 
     42 C          29.7352   32.4829    6.0899 C.2       6 UNK         0.5070 
     43 O          30.4206   33.5038    6.1424 O.2       6 UNK        -0.5237 
     44 N          28.4077   32.4894    5.9146 N.am      7 UNK        -0.4739 
     45 CA         27.6153   33.6867    5.6268 C.3       7 UNK         0.0276 
     46 CB         26.1401   33.3909    5.9459 C.3       7 UNK        -0.1927 
     47 C          27.7615   34.1816    4.1734 C.2       7 UNK         0.5013 
     48 O          27.3675   35.3147    3.8936 O.2       7 UNK        -0.5193 
     49 N          28.2903   33.3347    3.2787 N.am      8 UNK        -0.4253 
     50 CA         28.4550   33.6084    1.8543 C.3       8 UNK         0.0242 
     51 CB         27.8377   32.4609    1.0340 C.3       8 UNK        -0.2000 
     52 C          29.9327   33.8203    1.5000 C.2       8 UNK         0.4948 
     53 O          30.2716   34.8977    1.0078 O.2       8 UNK        -0.5275 
     54 N          30.7811   32.8075    1.7348 N.am      9 UNK        -0.4246 
     55 CA         32.1932   32.8060    1.3484 C.3       9 UNK         0.0261 
     56 CB         32.3480   32.7965   -0.1945 C.3       9 UNK        -0.1959 
     57 C          32.9673   31.6762    2.0527 C.2       9 UNK         0.5033 
     58 O          33.2751   31.8141    3.2365 O.2       9 UNK        -0.5390 
     59 N          33.3222   30.6327    1.2851 N.am      10 UNK        -0.4215 
     60 CA         34.3682   29.6233    1.5116 C.3       10 UNK         0.0240 
     61 CB         34.1628   28.4402    0.5495 C.3       10 UNK        -0.1982 
     62 C          34.5799   29.1183    2.9483 C.2       10 UNK         0.4970 
     63 O          35.7191   29.1395    3.4176 O.2       10 UNK        -0.4916 
     64 N          33.5086   28.6716    3.6140 N.am      11 UNK        -0.4279 
     65 CA         33.5558   28.1896    5.0063 C.3       11 UNK         0.1003 
     66 C          33.8018   29.2847    6.0886 C.2       11 UNK         0.5709 
     67 N          33.8795   30.5671    5.7569 N.am      11 UNK        -0.7358 
     68 O          33.9542   28.9574    7.2631 O.2       11 UNK        -0.4999 
     69 C69        32.3410   27.2834    5.3403 C.3       12 UNK        -0.0954 
     70 S70        32.4941   25.6609    4.5250 S.3       12 UNK        -0.2268 
     71 C71        31.2905   24.6599    5.4540 C.3       12 UNK         0.0203 
     72 H72        24.7345   18.5078    0.1838 H         1 UNK         0.0888 
     73 H73        24.3300   18.6279   -1.5296 H         1 UNK         0.0888 
     74 H74        24.9034   17.0965   -0.8622 H         1 UNK         0.0888 
     75 H75        26.6938   19.4997    0.6429 H         1 UNK         0.3017 
     76 H76        29.0856   18.9678   -0.8628 H         1 UNK         0.0873 
     77 H77        29.4139   19.1402    1.4585 H         1 UNK         0.0745 
     78 H78        30.1399   20.5746    0.8258 H         1 UNK         0.0745 
     79 H79        27.7943   23.1160    0.9932 H         1 UNK         0.0705 
     80 H80        29.4959   22.7788    1.1378 H         1 UNK         0.0705 
     81 H81        30.6954   23.1265    3.3089 H         1 UNK         0.1334 
     82 H82        28.9540   26.0032    5.9669 H         1 UNK         0.1417 
     83 H83        26.6312   24.3661    2.7495 H         1 UNK         0.1562 
     84 H84        26.6011   26.5498    5.8066 H         1 UNK         0.0748 
     85 H85        25.5858   25.4745    4.8836 H         1 UNK         0.0748 
     86 H86        27.1027   28.8452    5.2752 H         1 UNK         0.0940 
     87 H87        26.7257   29.7283    3.8234 H         1 UNK         0.0940 
     88 H88        29.1151   27.8428    4.1963 H         1 UNK         0.0703 
     89 H89        27.9202   28.6063    1.7565 H         1 UNK         0.3081 
     90 H90        28.7700   27.9098   -0.1646 H         1 UNK         0.0719 
     91 H91        31.2874   29.6397   -0.4015 H         1 UNK         0.0809 
     92 H92        30.0857   29.3694   -1.6596 H         1 UNK         0.0809 
     93 H93        29.6579   30.2719   -0.2158 H         1 UNK         0.0809 
     94 H94        31.6129   27.2707   -0.5923 H         1 UNK         0.2990 
     95 H95        32.0675   25.2278   -1.4873 H         1 UNK         0.0690 
     96 H96        33.0745   23.7068    0.1947 H         1 UNK         0.0788 
     97 H97        31.6408   23.8343    1.2126 H         1 UNK         0.0788 
     98 H98        32.6598   25.2363    0.9506 H         1 UNK         0.0788 
     99 H99        30.9493   22.6706   -0.8744 H         1 UNK         0.2993 
    100 H100       28.8703   22.2888   -3.6401 H         1 UNK         0.0949 
    101 H101       31.8049   21.4033   -3.7469 H         1 UNK         0.0767 
    102 H102       30.4688   20.6625   -4.6301 H         1 UNK         0.0767 
    103 H103       30.9587   22.3075   -4.9947 H         1 UNK         0.0767 
    104 H104       30.3947   20.4388   -1.9857 H         1 UNK         0.3013 
    105 H105       29.3992   29.2501    6.1328 H         1 UNK         0.3121 
    106 H106       31.3750   31.2067    5.6875 H         1 UNK         0.0774 
    107 H107       31.2539   31.5129    8.1650 H         1 UNK         0.0815 
    108 H108       29.7347   30.6297    8.2203 H         1 UNK         0.0815 
    109 H109       31.2251   29.8076    7.7567 H         1 UNK         0.0815 
    110 H110       27.9197   31.6062    5.9112 H         1 UNK         0.2987 
    111 H111       27.9525   34.4945    6.2805 H         1 UNK         0.0949 
    112 H112       25.5200   34.2728    5.7785 H         1 UNK         0.0806 
    113 H113       25.7431   32.5908    5.3199 H         1 UNK         0.0806 
    114 H114       26.0094   33.1001    6.9884 H         1 UNK         0.0806 
    115 H115       28.6629   32.4477    3.6021 H         1 UNK         0.3010 
    116 H116       27.9234   34.5229    1.5820 H         1 UNK         0.0829 
    117 H117       26.7596   32.4086    1.1856 H         1 UNK         0.0813 
    118 H118       28.0074   32.6067   -0.0337 H         1 UNK         0.0813 
    119 H119       28.2548   31.4912    1.3037 H         1 UNK         0.0813 
    120 H120       30.4503   31.9872    2.2445 H         1 UNK         0.3038 
    121 H121       32.6358   33.7345    1.7156 H         1 UNK         0.0769 
    122 H122       33.3936   32.7030   -0.4920 H         1 UNK         0.0811 
    123 H123       31.9919   33.7283   -0.6335 H         1 UNK         0.0811 
    124 H124       31.7875   31.9877   -0.6620 H         1 UNK         0.0811 
    125 H125       32.9728   30.6601    0.3399 H         1 UNK         0.3204 
    126 H126       35.3014   30.1112    1.2233 H         1 UNK         0.0748 
    127 H127       34.9648   27.7080    0.6543 H         1 UNK         0.0771 
    128 H128       33.2260   27.9208    0.7469 H         1 UNK         0.0771 
    129 H129       34.1587   28.7644   -0.4912 H         1 UNK         0.0771 
    130 H130       32.6067   28.6359    3.1448 H         1 UNK         0.2980 
    131 H131       34.4443   27.5597    5.0842 H         1 UNK         0.0545 
    132 H132       34.0639   31.2477    6.4751 H         1 UNK         0.3459 
    133 H133       33.7351   30.8744    4.7977 H         1 UNK         0.3459 
    134 H134       32.2658   27.1087    6.4148 H         1 UNK         0.0616 
    135 H135       31.4069   27.7531    5.0355 H         1 UNK         0.0616 
    136 H136       31.6966   23.6548    5.5773 H         1 UNK         0.0634 
    137 H137       31.1538   25.0557    6.4612 H         1 UNK         0.0634 
@<TRIPOS>BOND
     1    1    2 1    
     2    1   72 1    
     3    1   73 1    
     4    1   74 1    
     5    2    3 2    
     6    2    4 am   BACKBONE|DICT|INTERRES
     7    4    5 1    
     8    4   75 1    
     9    5    6 1    
    10    5   35 1    
    11    5   76 1    
    12    6    7 1    
    13    6   77 1    
    14    6   78 1    
    15    7    8 1    
    16    8    9 1    
    17    8   79 1    
    18    8   80 1    
    19    9   10 ar   
    20    9   14 ar   
    21   10   11 ar   
    22   10   81 1    
    23   11   12 ar   
    24   11   71 1    
    25   12   13 ar   
    26   12   82 1    
    27   13   14 ar   
    28   13   15 1    
    29   14   83 1    
    30   15   16 1    
    31   15   84 1    
    32   15   85 1    
    33   16   17 1    
    34   17   18 1    
    35   17   86 1    
    36   17   87 1    
    37   18   19 1    
    38   18   37 1    
    39   18   88 1    
    40   19   20 am   BACKBONE|DICT|INTERRES
    41   19   89 1    
    42   20   21 2    
    43   20   22 1    
    44   22   23 1    
    45   22   24 1    
    46   22   90 1    
    47   23   91 1    
    48   23   92 1    
    49   23   93 1    
    50   24   25 am   BACKBONE|DICT|INTERRES
    51   24   94 1    
    52   25   26 2    
    53   25   27 1    
    54   27   28 1    
    55   27   29 1    
    56   27   95 1    
    57   28   96 1    
    58   28   97 1    
    59   28   98 1    
    60   29   30 am   BACKBONE|DICT|INTERRES
    61   29   99 1    
    62   30   31 2    
    63   30   32 1    
    64   32   33 1    
    65   32   34 1    
    66   32  100 1    
    67   33  101 1    
    68   33  102 1    
    69   33  103 1    
    70   34   35 am   BACKBONE|DICT|INTERRES
    71   34  104 1    
    72   35   36 2    
    73   37   38 2    
    74   37   39 am   BACKBONE|DICT|INTERRES
    75   39   40 1    
    76   39  105 1    
    77   40   41 1    
    78   40   42 1    
    79   40  106 1    
    80   41  107 1    
    81   41  108 1    
    82   41  109 1    
    83   42   43 2    
    84   42   44 am   BACKBONE|DICT|INTERRES
    85   44   45 1    
    86   44  110 1    
    87   45   46 1    
    88   45   47 1    
    89   45  111 1    
    90   46  112 1    
    91   46  113 1    
    92   46  114 1    
    93   47   48 2    
    94   47   49 am   BACKBONE|DICT|INTERRES
    95   49   50 1    
    96   49  115 1    
    97   50   51 1    
    98   50   52 1    
    99   50  116 1    
   100   51  117 1    
   101   51  118 1    
   102   51  119 1    
   103   52   53 2    
   104   52   54 am   BACKBONE|DICT|INTERRES
   105   54   55 1    
   106   54  120 1    
   107   55   56 1    
   108   55   57 1    
   109   55  121 1    
   110   56  122 1    
   111   56  123 1    
   112   56  124 1    
   113   57   58 2    
   114   57   59 am   BACKBONE|DICT|INTERRES
   115   59   60 1    
   116   59  125 1    
   117   60   61 1    
   118   60   62 1    
   119   60  126 1    
   120   61  127 1    
   121   61  128 1    
   122   61  129 1    
   123   62   63 2    
   124   62   64 am   BACKBONE|DICT|INTERRES
   125   64   65 1    
   126   64  130 1    
   127   65   66 1    
   128   65   69 1    
   129   65  131 1    
   130   66   67 am   BACKBONE|DICT|INTERRES
   131   66   68 2    
   132   67  132 1    
   133   67  133 1    
   134   69   70 1    
   135   69  134 1    
   136   69  135 1    
   137   70   71 1    
   138   71  136 1    
   139   71  137 1    
@<TRIPOS>SUBSTRUCTURE
     1 UNK         1 GROUP             0       ****    0 ROOT    
