@<TRIPOS>MOLECULE
3R136
137   139    1
SMALL
USER_CHARGES


@<TRIPOS>ATOM
      1 CA         29.0365   23.1750   -2.5780 C.3       0 UNK        -0.1979 
      2 C          28.6463   23.3968   -1.1259 C.2       0 UNK         0.4864 
      3 O          28.0154   24.4081   -0.8131 O.2       0 UNK        -0.5359 
      4 N          29.0022   22.4563   -0.2383 N.am      1 UNK        -0.4318 
      5 CA         28.8132   22.5296    1.2189 C.3       1 UNK         0.0824 
      6 C6         29.3988   21.3018    1.9590 C.3       12 UNK        -0.0944 
      7 S7         31.1330   20.9466    1.5257 S.3       12 UNK        -0.2672 
      8 C8         32.0339   21.8689    2.8142 C.3       12 UNK         0.0333 
      9 C9         32.0661   23.3695    2.5497 C.ar      12 UNK        -0.0807 
     10 C10        31.6243   24.2732    3.5221 C.ar      12 UNK        -0.0894 
     11 C11        31.7256   25.6528    3.3078 C.ar      12 UNK        -0.0804 
     12 C12        32.2423   26.1243    2.0974 C.ar      12 UNK        -0.0824 
     13 C13        32.6686   25.2322    1.1114 C.ar      12 UNK        -0.0762 
     14 C14        32.5864   23.8579    1.3471 C.ar      12 UNK        -0.0782 
     15 C15        33.2470   25.7427   -0.1983 C.3       12 UNK         0.0230 
     16 S16        31.9821   25.8238   -1.5037 S.3       12 UNK        -0.2608 
     17 C17        31.3236   27.5129   -1.3012 C.3       12 UNK        -0.0989 
     18 CA         29.7707   27.5327   -1.3502 C.3       5 UNK         0.0716 
     19 N          29.1296   26.9330   -0.1779 N.am      5 UNK        -0.4135 
     20 C          29.1142   27.4297    1.0679 C.2       4 UNK         0.5031 
     21 O          29.8046   28.3842    1.4239 O.2       4 UNK        -0.5229 
     22 CA         28.1559   26.7593    2.0750 C.3       4 UNK         0.0329 
     23 CB         27.7887   27.6771    3.2590 C.3       4 UNK        -0.2001 
     24 N          26.9455   26.2256    1.4395 N.am      4 UNK        -0.4303 
     25 C          26.0148   26.9007    0.7432 C.2       3 UNK         0.5044 
     26 O          25.9718   28.1286    0.6663 O.2       3 UNK        -0.5152 
     27 CA         24.9734   26.0721   -0.0343 C.3       3 UNK         0.0319 
     28 CB         25.0416   26.4002   -1.5365 C.3       3 UNK        -0.2001 
     29 N          25.1869   24.6325    0.1300 N.am      3 UNK        -0.4354 
     30 C          24.4702   23.8305    0.9293 C.2       2 UNK         0.4964 
     31 O          23.4779   24.1970    1.5593 O.2       2 UNK        -0.5047 
     32 CA         24.9508   22.3728    1.0707 C.3       2 UNK         0.0288 
     33 CB         24.1957   21.4613    0.0897 C.3       2 UNK        -0.2113 
     34 N          26.3946   22.2015    0.8728 N.am      2 UNK        -0.4145 
     35 C          27.3474   22.7393    1.6500 C.2       1 UNK         0.5006 
     36 O          27.1078   23.4184    2.6482 O.2       1 UNK        -0.5103 
     37 C          29.1670   28.9295   -1.6166 C.2       5 UNK         0.5055 
     38 O          28.0845   29.0083   -2.2003 O.2       5 UNK        -0.5220 
     39 N          29.8619   29.9945   -1.1943 N.am      6 UNK        -0.4450 
     40 CA         29.3896   31.3764   -1.2886 C.3       6 UNK         0.0367 
     41 CB         30.5981   32.3229   -1.3843 C.3       6 UNK        -0.1929 
     42 C          28.4956   31.7630   -0.0981 C.2       6 UNK         0.5070 
     43 O          27.4629   32.4014   -0.3022 O.2       6 UNK        -0.5237 
     44 N          28.9188   31.3840    1.1133 N.am      7 UNK        -0.4739 
     45 CA         28.3292   31.6913    2.4165 C.3       7 UNK         0.0276 
     46 CB         28.2553   33.2151    2.6555 C.3       7 UNK        -0.1927 
     47 C          29.2294   31.0525    3.4813 C.2       7 UNK         0.5013 
     48 O          30.4001   30.7908    3.1987 O.2       7 UNK        -0.5193 
     49 N          28.7021   30.8653    4.7008 N.am      8 UNK        -0.4253 
     50 CA         29.3810   30.2264    5.8428 C.3       8 UNK         0.0242 
     51 CB         28.4618   30.2766    7.0733 C.3       8 UNK        -0.2000 
     52 C          30.7734   30.7896    6.1890 C.2       8 UNK         0.4948 
     53 O          31.6277   30.0390    6.6597 O.2       8 UNK        -0.5275 
     54 N          31.0015   32.0763    5.8889 N.am      9 UNK        -0.4246 
     55 CA         32.2977   32.7550    5.9731 C.3       9 UNK         0.0261 
     56 CB         32.1130   34.2352    5.6015 C.3       9 UNK        -0.1959 
     57 C          33.4085   32.1208    5.1100 C.2       9 UNK         0.5033 
     58 O          34.5820   32.2870    5.4447 O.2       9 UNK        -0.5390 
     59 N          33.0414   31.3848    4.0483 N.am      10 UNK        -0.4215 
     60 CA         33.9638   30.6393    3.1866 C.3       10 UNK         0.0240 
     61 CB         33.2327   30.2114    1.9016 C.3       10 UNK        -0.1982 
     62 C          34.6157   29.4201    3.8683 C.2       10 UNK         0.4970 
     63 O          35.6033   28.9134    3.3340 O.2       10 UNK        -0.4916 
     64 N          34.0820   28.9742    5.0138 N.am      11 UNK        -0.4279 
     65 CA         34.6265   27.8692    5.8162 C.3       11 UNK         0.1003 
     66 C          34.7463   28.1967    7.3325 C.2       11 UNK         0.5709 
     67 N          34.6517   29.4554    7.7458 N.am      11 UNK        -0.7358 
     68 O          34.9708   27.3048    8.1479 O.2       11 UNK        -0.4999 
     69 C69        33.9325   26.5185    5.4946 C.3       12 UNK        -0.0954 
     70 S70        32.1682   26.4271    5.9666 S.3       12 UNK        -0.2268 
     71 C71        31.2924   26.6442    4.3816 C.3       12 UNK         0.0203 
     72 H72        28.1469   23.1559   -3.2066 H         1 UNK         0.0888 
     73 H73        29.6777   23.9880   -2.9178 H         1 UNK         0.0888 
     74 H74        29.5742   22.2375   -2.7175 H         1 UNK         0.0888 
     75 H75        29.5273   21.6536   -0.5563 H         1 UNK         0.3017 
     76 H76        29.3607   23.4142    1.5510 H         1 UNK         0.0873 
     77 H77        28.8180   20.4068    1.7269 H         1 UNK         0.0745 
     78 H78        29.3249   21.4345    3.0404 H         1 UNK         0.0745 
     79 H79        31.6024   21.6477    3.7916 H         1 UNK         0.0705 
     80 H80        33.0612   21.5035    2.8463 H         1 UNK         0.0705 
     81 H81        31.2306   23.9080    4.4609 H         1 UNK         0.1334 
     82 H82        32.3151   27.1881    1.9228 H         1 UNK         0.1417 
     83 H83        32.9309   23.1639    0.5922 H         1 UNK         0.1562 
     84 H84        34.0425   25.0730   -0.5287 H         1 UNK         0.0748 
     85 H85        33.7167   26.7183   -0.0628 H         1 UNK         0.0748 
     86 H86        31.7424   28.1104   -2.1135 H         1 UNK         0.0940 
     87 H87        31.6953   27.9521   -0.3748 H         1 UNK         0.0940 
     88 H88        29.4624   26.9189   -2.1984 H         1 UNK         0.0703 
     89 H89        28.5682   26.1063   -0.3728 H         1 UNK         0.3081 
     90 H90        28.6970   25.9007    2.4749 H         1 UNK         0.0719 
     91 H91        28.6828   28.0219    3.7738 H         1 UNK         0.0809 
     92 H92        27.2483   28.5654    2.9328 H         1 UNK         0.0809 
     93 H93        27.1721   27.1554    3.9906 H         1 UNK         0.0809 
     94 H94        26.8569   25.2182    1.4774 H         1 UNK         0.2990 
     95 H95        23.9866   26.3579    0.3355 H         1 UNK         0.0690 
     96 H96        26.0242   26.1738   -1.9534 H         1 UNK         0.0788 
     97 H97        24.8489   27.4587   -1.7172 H         1 UNK         0.0788 
     98 H98        24.2987   25.8358   -2.1003 H         1 UNK         0.0788 
     99 H99        26.0101   24.2593   -0.3319 H         1 UNK         0.2993 
    100 H100       24.7159   22.0529    2.0884 H         1 UNK         0.0949 
    101 H101       23.1170   21.5456    0.2300 H         1 UNK         0.0767 
    102 H102       24.4105   21.7190   -0.9483 H         1 UNK         0.0767 
    103 H103       24.4583   20.4135    0.2382 H         1 UNK         0.0767 
    104 H104       26.6839   21.6651    0.0675 H         1 UNK         0.3013 
    105 H105       30.7081   29.8340   -0.6681 H         1 UNK         0.3121 
    106 H106       28.8010   31.4937   -2.2015 H         1 UNK         0.0774 
    107 H107       31.2399   32.2553   -0.5049 H         1 UNK         0.0815 
    108 H108       30.2726   33.3606   -1.4699 H         1 UNK         0.0815 
    109 H109       31.2061   32.1019   -2.2617 H         1 UNK         0.0815 
    110 H110       29.7460   30.8015    1.1950 H         1 UNK         0.2987 
    111 H111       27.3344   31.2450    2.4677 H         1 UNK         0.0949 
    112 H112       29.2331   33.6860    2.5455 H         1 UNK         0.0806 
    113 H113       27.5704   33.7029    1.9627 H         1 UNK         0.0806 
    114 H114       27.8953   33.4419    3.6598 H         1 UNK         0.0806 
    115 H115       27.7414   31.1374    4.8532 H         1 UNK         0.3010 
    116 H116       29.5340   29.1785    5.5805 H         1 UNK         0.0829 
    117 H117       28.9309   29.7921    7.9311 H         1 UNK         0.0813 
    118 H118       28.2318   31.3024    7.3639 H         1 UNK         0.0813 
    119 H119       27.5205   29.7588    6.8882 H         1 UNK         0.0813 
    120 H120       30.2386   32.6078    5.4964 H         1 UNK         0.3038 
    121 H121       32.6264   32.6996    7.0129 H         1 UNK         0.0769 
    122 H122       31.7551   34.3523    4.5776 H         1 UNK         0.0811 
    123 H123       33.0559   34.7783    5.6810 H         1 UNK         0.0811 
    124 H124       31.4021   34.7270    6.2658 H         1 UNK         0.0811 
    125 H125       32.0496   31.2701    3.8391 H         1 UNK         0.3204 
    126 H126       34.7722   31.3165    2.9034 H         1 UNK         0.0748 
    127 H127       33.9115   29.7091    1.2111 H         1 UNK         0.0771 
    128 H128       32.4162   29.5213    2.1151 H         1 UNK         0.0771 
    129 H129       32.8142   31.0711    1.3782 H         1 UNK         0.0771 
    130 H130       33.2625   29.4267    5.4040 H         1 UNK         0.2980 
    131 H131       35.6718   27.7373    5.5322 H         1 UNK         0.0545 
    132 H132       34.7388   29.6562    8.7291 H         1 UNK         0.3459 
    133 H133       34.4996   30.2044    7.0891 H         1 UNK         0.3459 
    134 H134       34.0462   26.3012    4.4328 H         1 UNK         0.0616 
    135 H135       34.4501   25.7048    6.0049 H         1 UNK         0.0616 
    136 H136       31.4244   27.6739    4.0434 H         1 UNK         0.0634 
    137 H137       30.2271   26.5113    4.5664 H         1 UNK         0.0634 
@<TRIPOS>BOND
     1    1    2 1    
     2    1   72 1    
     3    1   73 1    
     4    1   74 1    
     5    2    3 2    
     6    2    4 am   BACKBONE|DICT|INTERRES
     7    4    5 1    
     8    4   75 1    
     9    5    6 1    
    10    5   35 1    
    11    5   76 1    
    12    6    7 1    
    13    6   77 1    
    14    6   78 1    
    15    7    8 1    
    16    8    9 1    
    17    8   79 1    
    18    8   80 1    
    19    9   10 ar   
    20    9   14 ar   
    21   10   11 ar   
    22   10   81 1    
    23   11   12 ar   
    24   11   71 1    
    25   12   13 ar   
    26   12   82 1    
    27   13   14 ar   
    28   13   15 1    
    29   14   83 1    
    30   15   16 1    
    31   15   84 1    
    32   15   85 1    
    33   16   17 1    
    34   17   18 1    
    35   17   86 1    
    36   17   87 1    
    37   18   19 1    
    38   18   37 1    
    39   18   88 1    
    40   19   20 am   BACKBONE|DICT|INTERRES
    41   19   89 1    
    42   20   21 2    
    43   20   22 1    
    44   22   23 1    
    45   22   24 1    
    46   22   90 1    
    47   23   91 1    
    48   23   92 1    
    49   23   93 1    
    50   24   25 am   BACKBONE|DICT|INTERRES
    51   24   94 1    
    52   25   26 2    
    53   25   27 1    
    54   27   28 1    
    55   27   29 1    
    56   27   95 1    
    57   28   96 1    
    58   28   97 1    
    59   28   98 1    
    60   29   30 am   BACKBONE|DICT|INTERRES
    61   29   99 1    
    62   30   31 2    
    63   30   32 1    
    64   32   33 1    
    65   32   34 1    
    66   32  100 1    
    67   33  101 1    
    68   33  102 1    
    69   33  103 1    
    70   34   35 am   BACKBONE|DICT|INTERRES
    71   34  104 1    
    72   35   36 2    
    73   37   38 2    
    74   37   39 am   BACKBONE|DICT|INTERRES
    75   39   40 1    
    76   39  105 1    
    77   40   41 1    
    78   40   42 1    
    79   40  106 1    
    80   41  107 1    
    81   41  108 1    
    82   41  109 1    
    83   42   43 2    
    84   42   44 am   BACKBONE|DICT|INTERRES
    85   44   45 1    
    86   44  110 1    
    87   45   46 1    
    88   45   47 1    
    89   45  111 1    
    90   46  112 1    
    91   46  113 1    
    92   46  114 1    
    93   47   48 2    
    94   47   49 am   BACKBONE|DICT|INTERRES
    95   49   50 1    
    96   49  115 1    
    97   50   51 1    
    98   50   52 1    
    99   50  116 1    
   100   51  117 1    
   101   51  118 1    
   102   51  119 1    
   103   52   53 2    
   104   52   54 am   BACKBONE|DICT|INTERRES
   105   54   55 1    
   106   54  120 1    
   107   55   56 1    
   108   55   57 1    
   109   55  121 1    
   110   56  122 1    
   111   56  123 1    
   112   56  124 1    
   113   57   58 2    
   114   57   59 am   BACKBONE|DICT|INTERRES
   115   59   60 1    
   116   59  125 1    
   117   60   61 1    
   118   60   62 1    
   119   60  126 1    
   120   61  127 1    
   121   61  128 1    
   122   61  129 1    
   123   62   63 2    
   124   62   64 am   BACKBONE|DICT|INTERRES
   125   64   65 1    
   126   64  130 1    
   127   65   66 1    
   128   65   69 1    
   129   65  131 1    
   130   66   67 am   BACKBONE|DICT|INTERRES
   131   66   68 2    
   132   67  132 1    
   133   67  133 1    
   134   69   70 1    
   135   69  134 1    
   136   69  135 1    
   137   70   71 1    
   138   71  136 1    
   139   71  137 1    
@<TRIPOS>SUBSTRUCTURE
     1 UNK         1 GROUP             0       ****    0 ROOT    
