@<TRIPOS>MOLECULE
3R136
137   139    1
SMALL
USER_CHARGES


@<TRIPOS>ATOM
      1 CA         29.5638   25.9356    2.8402 C.3       0 UNK        -0.1979 
      2 C          29.1626   24.7726    1.9473 C.2       0 UNK         0.4864 
      3 O          28.6298   25.0053    0.8627 O.2       0 UNK        -0.5359 
      4 N          29.3849   23.5327    2.4135 N.am      1 UNK        -0.4318 
      5 CA         29.0568   22.2606    1.7469 C.3       1 UNK         0.0824 
      6 C6         30.0131   21.9247    0.5683 C.3       12 UNK        -0.0944 
      7 S7         31.5910   21.2470    1.1826 S.3       12 UNK        -0.2672 
      8 C8         32.8249   22.1409    0.1850 C.3       12 UNK         0.0333 
      9 C9         33.0094   23.5870    0.6250 C.ar      12 UNK        -0.0807 
     10 C10        33.3133   23.8902    1.9559 C.ar      12 UNK        -0.0894 
     11 C11        33.4955   25.2149    2.3612 C.ar      12 UNK        -0.0804 
     12 C12        33.3923   26.2426    1.4175 C.ar      12 UNK        -0.0824 
     13 C13        33.1187   25.9509    0.0771 C.ar      12 UNK        -0.0762 
     14 C14        32.9206   24.6219   -0.3102 C.ar      12 UNK        -0.0782 
     15 C15        33.0873   27.0621   -0.9644 C.3       12 UNK         0.0230 
     16 S16        31.4643   27.2187   -1.7725 S.3       12 UNK        -0.2608 
     17 C17        30.4925   27.9856   -0.4387 C.3       12 UNK        -0.0989 
     18 CA         29.0314   28.2521   -0.8702 C.3       5 UNK         0.0716 
     19 N          28.3120   27.0062   -1.1181 N.am      5 UNK        -0.4135 
     20 C          27.4997   26.7617   -2.1513 C.2       4 UNK         0.5031 
     21 O          27.3572   27.5109   -3.1190 O.2       4 UNK        -0.5229 
     22 CA         26.6675   25.4718   -2.0591 C.3       4 UNK         0.0329 
     23 CB         27.5038   24.2495   -2.4703 C.3       4 UNK        -0.2001 
     24 N          26.1531   25.2854   -0.7007 N.am      4 UNK        -0.4303 
     25 C          25.1647   26.0165   -0.1648 C.2       3 UNK         0.5044 
     26 O          24.4603   26.7874   -0.8203 O.2       3 UNK        -0.5152 
     27 CA         24.9484   25.8921    1.3578 C.3       3 UNK         0.0319 
     28 CB         23.5463   26.3559    1.8089 C.3       3 UNK        -0.2001 
     29 N          25.2614   24.5631    1.8949 N.am      3 UNK        -0.4354 
     30 C          24.6573   23.4013    1.6012 C.2       2 UNK         0.4964 
     31 O          23.7056   23.2917    0.8260 O.2       2 UNK        -0.5047 
     32 CA         25.2303   22.1554    2.3072 C.3       2 UNK         0.0288 
     33 CB         24.7257   20.8277    1.6999 C.3       2 UNK        -0.2113 
     34 N          26.6990   22.1736    2.3893 N.am      2 UNK        -0.4145 
     35 C          27.5630   22.1846    1.3607 C.2       1 UNK         0.5006 
     36 O          27.2240   22.1698    0.1759 O.2       1 UNK        -0.5103 
     37 C          28.2835   29.0400    0.2210 C.2       5 UNK         0.5055 
     38 O          27.5276   28.4584    1.0051 O.2       5 UNK        -0.5220 
     39 N          28.5253   30.3560    0.2649 N.am      6 UNK        -0.4450 
     40 CA         28.0259   31.2534    1.3086 C.3       6 UNK         0.0367 
     41 CB         28.2216   32.7075    0.8474 C.3       6 UNK        -0.1929 
     42 C          28.7502   31.0220    2.6451 C.2       6 UNK         0.5070 
     43 O          29.8916   30.5582    2.6541 O.2       6 UNK        -0.5237 
     44 N          28.1079   31.4184    3.7515 N.am      7 UNK        -0.4739 
     45 CA         28.6452   31.3177    5.1172 C.3       7 UNK         0.0276 
     46 CB         27.5506   31.7214    6.1182 C.3       7 UNK        -0.1927 
     47 C          29.9275   32.1392    5.3635 C.2       7 UNK         0.5013 
     48 O          30.6712   31.8351    6.2957 O.2       7 UNK        -0.5193 
     49 N          30.1637   33.1586    4.5265 N.am      8 UNK        -0.4253 
     50 CA         31.3676   33.9893    4.5336 C.3       8 UNK         0.0242 
     51 CB         31.0807   35.2897    3.7650 C.3       8 UNK        -0.2000 
     52 C          32.6056   33.2857    3.9469 C.2       8 UNK         0.4948 
     53 O          33.7245   33.7058    4.2487 O.2       8 UNK        -0.5275 
     54 N          32.4154   32.2424    3.1241 N.am      9 UNK        -0.4246 
     55 CA         33.4912   31.4953    2.4665 C.3       9 UNK         0.0261 
     56 CB         32.9363   30.8340    1.1920 C.3       9 UNK        -0.1959 
     57 C          34.1113   30.4714    3.4319 C.2       9 UNK         0.5033 
     58 O          33.9423   29.2654    3.2380 O.2       9 UNK        -0.5390 
     59 N          34.7650   30.9728    4.4888 N.am      10 UNK        -0.4215 
     60 CA         35.3301   30.2457    5.6329 C.3       10 UNK         0.0240 
     61 CB         36.4767   29.3035    5.2053 C.3       10 UNK        -0.1982 
     62 C          34.2432   29.5265    6.4518 C.2       10 UNK         0.4970 
     63 O          33.8768   30.0123    7.5246 O.2       10 UNK        -0.4916 
     64 N          33.7438   28.4055    5.9175 N.am      11 UNK        -0.4279 
     65 CA         32.5486   27.6982    6.3938 C.3       11 UNK         0.1003 
     66 C          31.2505   28.1608    5.6634 C.2       11 UNK         0.5709 
     67 N          31.3450   28.7795    4.4903 N.am      11 UNK        -0.7358 
     68 O          30.1523   27.9648    6.1779 O.2       11 UNK        -0.4999 
     69 C69        32.7735   26.1551    6.3917 C.3       12 UNK        -0.0954 
     70 S70        32.3437   25.2608    4.8572 S.3       12 UNK        -0.2268 
     71 C71        33.8085   25.5284    3.8169 C.3       12 UNK         0.0203 
     72 H72        28.8907   26.7800    2.6948 H         1 UNK         0.0888 
     73 H73        29.5290   25.6625    3.8943 H         1 UNK         0.0888 
     74 H74        30.5748   26.2633    2.6012 H         1 UNK         0.0888 
     75 H75        29.8406   23.4341    3.3101 H         1 UNK         0.3017 
     76 H76        29.1843   21.4828    2.5021 H         1 UNK         0.0873 
     77 H77        29.5887   21.1610   -0.0861 H         1 UNK         0.0745 
     78 H78        30.1840   22.8013   -0.0592 H         1 UNK         0.0745 
     79 H79        32.5426   22.0800   -0.8673 H         1 UNK         0.0705 
     80 H80        33.7831   21.6277    0.2761 H         1 UNK         0.0705 
     81 H81        33.3957   23.0936    2.6827 H         1 UNK         0.1334 
     82 H82        33.5416   27.2688    1.7227 H         1 UNK         0.1417 
     83 H83        32.7085   24.3972   -1.3469 H         1 UNK         0.1562 
     84 H84        33.8368   26.8473   -1.7272 H         1 UNK         0.0748 
     85 H85        33.3665   28.0212   -0.5254 H         1 UNK         0.0748 
     86 H86        30.9875   28.9170   -0.1626 H         1 UNK         0.0940 
     87 H87        30.5283   27.3422    0.4416 H         1 UNK         0.0940 
     88 H88        29.0402   28.8624   -1.7759 H         1 UNK         0.0703 
     89 H89        28.3483   26.3255   -0.3602 H         1 UNK         0.3081 
     90 H90        25.8233   25.5580   -2.7464 H         1 UNK         0.0719 
     91 H91        27.8939   24.3652   -3.4822 H         1 UNK         0.0809 
     92 H92        28.3558   24.0994   -1.8052 H         1 UNK         0.0809 
     93 H93        26.9058   23.3382   -2.4528 H         1 UNK         0.0809 
     94 H94        26.7142   24.7048   -0.0869 H         1 UNK         0.2990 
     95 H95        25.6735   26.5705    1.8100 H         1 UNK         0.0690 
     96 H96        23.4297   26.2756    2.8896 H         1 UNK         0.0788 
     97 H97        22.7551   25.7699    1.3404 H         1 UNK         0.0788 
     98 H98        23.3764   27.4001    1.5438 H         1 UNK         0.0788 
     99 H99        26.0457   24.5301    2.5303 H         1 UNK         0.2993 
    100 H100       24.8645   22.2019    3.3343 H         1 UNK         0.0949 
    101 H101       23.6390   20.7576    1.7629 H         1 UNK         0.0767 
    102 H102       24.9955   20.7334    0.6475 H         1 UNK         0.0767 
    103 H103       25.1354   19.9678    2.2298 H         1 UNK         0.0767 
    104 H104       27.0809   22.2051    3.3250 H         1 UNK         0.3013 
    105 H105       29.1827   30.7532   -0.3899 H         1 UNK         0.3121 
    106 H106       26.9594   31.0640    1.4494 H         1 UNK         0.0774 
    107 H107       27.7091   32.8968   -0.0961 H         1 UNK         0.0815 
    108 H108       27.8172   33.4106    1.5767 H         1 UNK         0.0815 
    109 H109       29.2766   32.9504    0.7107 H         1 UNK         0.0815 
    110 H110       27.1786   31.8051    3.6615 H         1 UNK         0.2987 
    111 H111       28.8984   30.2710    5.2953 H         1 UNK         0.0949 
    112 H112       26.6716   31.0833    6.0251 H         1 UNK         0.0806 
    113 H113       27.9074   31.6275    7.1450 H         1 UNK         0.0806 
    114 H114       27.2343   32.7556    5.9765 H         1 UNK         0.0806 
    115 H115       29.4856   33.3397    3.8014 H         1 UNK         0.3010 
    116 H116       31.6005   34.2482    5.5689 H         1 UNK         0.0829 
    117 H117       30.8322   35.0964    2.7206 H         1 UNK         0.0813 
    118 H118       30.2533   35.8413    4.2119 H         1 UNK         0.0813 
    119 H119       31.9498   35.9493    3.7760 H         1 UNK         0.0813 
    120 H120       31.4759   31.8854    2.9836 H         1 UNK         0.3038 
    121 H121       34.2794   32.1883    2.1642 H         1 UNK         0.0769 
    122 H122       32.1698   30.0967    1.4288 H         1 UNK         0.0811 
    123 H123       33.7265   30.3173    0.6462 H         1 UNK         0.0811 
    124 H124       32.4994   31.5695    0.5167 H         1 UNK         0.0811 
    125 H125       34.7562   31.9856    4.5750 H         1 UNK         0.3204 
    126 H126       35.7631   31.0044    6.2869 H         1 UNK         0.0748 
    127 H127       36.8996   28.7898    6.0698 H         1 UNK         0.0771 
    128 H128       36.1537   28.5377    4.4999 H         1 UNK         0.0771 
    129 H129       37.2860   29.8622    4.7352 H         1 UNK         0.0771 
    130 H130       34.0458   28.1788    4.9767 H         1 UNK         0.2980 
    131 H131       32.3979   27.9749    7.4390 H         1 UNK         0.0545 
    132 H132       30.5218   29.1173    4.0111 H         1 UNK         0.3459 
    133 H133       32.2505   28.9154    4.0562 H         1 UNK         0.3459 
    134 H134       33.8004   25.9128    6.6708 H         1 UNK         0.0616 
    135 H135       32.1551   25.7165    7.1763 H         1 UNK         0.0616 
    136 H136       34.1487   26.5588    3.9131 H         1 UNK         0.0634 
    137 H137       34.6243   24.8954    4.1686 H         1 UNK         0.0634 
@<TRIPOS>BOND
     1    1    2 1    
     2    1   72 1    
     3    1   73 1    
     4    1   74 1    
     5    2    3 2    
     6    2    4 am   BACKBONE|DICT|INTERRES
     7    4    5 1    
     8    4   75 1    
     9    5    6 1    
    10    5   35 1    
    11    5   76 1    
    12    6    7 1    
    13    6   77 1    
    14    6   78 1    
    15    7    8 1    
    16    8    9 1    
    17    8   79 1    
    18    8   80 1    
    19    9   10 ar   
    20    9   14 ar   
    21   10   11 ar   
    22   10   81 1    
    23   11   12 ar   
    24   11   71 1    
    25   12   13 ar   
    26   12   82 1    
    27   13   14 ar   
    28   13   15 1    
    29   14   83 1    
    30   15   16 1    
    31   15   84 1    
    32   15   85 1    
    33   16   17 1    
    34   17   18 1    
    35   17   86 1    
    36   17   87 1    
    37   18   19 1    
    38   18   37 1    
    39   18   88 1    
    40   19   20 am   BACKBONE|DICT|INTERRES
    41   19   89 1    
    42   20   21 2    
    43   20   22 1    
    44   22   23 1    
    45   22   24 1    
    46   22   90 1    
    47   23   91 1    
    48   23   92 1    
    49   23   93 1    
    50   24   25 am   BACKBONE|DICT|INTERRES
    51   24   94 1    
    52   25   26 2    
    53   25   27 1    
    54   27   28 1    
    55   27   29 1    
    56   27   95 1    
    57   28   96 1    
    58   28   97 1    
    59   28   98 1    
    60   29   30 am   BACKBONE|DICT|INTERRES
    61   29   99 1    
    62   30   31 2    
    63   30   32 1    
    64   32   33 1    
    65   32   34 1    
    66   32  100 1    
    67   33  101 1    
    68   33  102 1    
    69   33  103 1    
    70   34   35 am   BACKBONE|DICT|INTERRES
    71   34  104 1    
    72   35   36 2    
    73   37   38 2    
    74   37   39 am   BACKBONE|DICT|INTERRES
    75   39   40 1    
    76   39  105 1    
    77   40   41 1    
    78   40   42 1    
    79   40  106 1    
    80   41  107 1    
    81   41  108 1    
    82   41  109 1    
    83   42   43 2    
    84   42   44 am   BACKBONE|DICT|INTERRES
    85   44   45 1    
    86   44  110 1    
    87   45   46 1    
    88   45   47 1    
    89   45  111 1    
    90   46  112 1    
    91   46  113 1    
    92   46  114 1    
    93   47   48 2    
    94   47   49 am   BACKBONE|DICT|INTERRES
    95   49   50 1    
    96   49  115 1    
    97   50   51 1    
    98   50   52 1    
    99   50  116 1    
   100   51  117 1    
   101   51  118 1    
   102   51  119 1    
   103   52   53 2    
   104   52   54 am   BACKBONE|DICT|INTERRES
   105   54   55 1    
   106   54  120 1    
   107   55   56 1    
   108   55   57 1    
   109   55  121 1    
   110   56  122 1    
   111   56  123 1    
   112   56  124 1    
   113   57   58 2    
   114   57   59 am   BACKBONE|DICT|INTERRES
   115   59   60 1    
   116   59  125 1    
   117   60   61 1    
   118   60   62 1    
   119   60  126 1    
   120   61  127 1    
   121   61  128 1    
   122   61  129 1    
   123   62   63 2    
   124   62   64 am   BACKBONE|DICT|INTERRES
   125   64   65 1    
   126   64  130 1    
   127   65   66 1    
   128   65   69 1    
   129   65  131 1    
   130   66   67 am   BACKBONE|DICT|INTERRES
   131   66   68 2    
   132   67  132 1    
   133   67  133 1    
   134   69   70 1    
   135   69  134 1    
   136   69  135 1    
   137   70   71 1    
   138   71  136 1    
   139   71  137 1    
@<TRIPOS>SUBSTRUCTURE
     1 UNK         1 GROUP             0       ****    0 ROOT    
