@<TRIPOS>MOLECULE
3R136
137   139    1
SMALL
USER_CHARGES


@<TRIPOS>ATOM
      1 CA         28.3813   23.3031    3.8112 C.3       0 UNK        -0.1979 
      2 C          28.6756   22.2892    2.7192 C.2       0 UNK         0.4864 
      3 O          27.9948   21.2651    2.6296 O.2       0 UNK        -0.5359 
      4 N          29.6925   22.5584    1.8909 N.am      1 UNK        -0.4318 
      5 CA         30.1480   21.6883    0.8016 C.3       1 UNK         0.0824 
      6 C6         31.6262   21.9601    0.4223 C.3       12 UNK        -0.0944 
      7 S7         32.7471   21.7543    1.8496 S.3       12 UNK        -0.2672 
      8 C8         33.7048   23.3034    1.8210 C.3       12 UNK         0.0333 
      9 C9         32.8558   24.5348    2.1118 C.ar      12 UNK        -0.0807 
     10 C10        32.5383   25.4255    1.0831 C.ar      12 UNK        -0.0894 
     11 C11        31.8141   26.5885    1.3516 C.ar      12 UNK        -0.0804 
     12 C12        31.4214   26.8655    2.6654 C.ar      12 UNK        -0.0824 
     13 C13        31.6859   25.9608    3.7017 C.ar      12 UNK        -0.0762 
     14 C14        32.4167   24.8023    3.4126 C.ar      12 UNK        -0.0782 
     15 C15        31.2190   26.1845    5.1439 C.3       12 UNK         0.0230 
     16 S16        30.0390   27.5542    5.4269 S.3       12 UNK        -0.2608 
     17 C17        28.5359   27.0137    4.5461 C.3       12 UNK        -0.0989 
     18 CA         27.9375   28.0857    3.5981 C.3       5 UNK         0.0716 
     19 N          26.8371   27.5148    2.8202 N.am      5 UNK        -0.4135 
     20 C          26.2109   28.1033    1.7943 C.2       4 UNK         0.5031 
     21 O          26.5081   29.2081    1.3369 O.2       4 UNK        -0.5229 
     22 CA         25.0533   27.3095    1.1649 C.3       4 UNK         0.0329 
     23 CB         23.8395   28.2120    0.8802 C.3       4 UNK        -0.2001 
     24 N          25.4691   26.6578   -0.0773 N.am      4 UNK        -0.4303 
     25 C          26.2898   25.6023   -0.1526 C.2       3 UNK         0.5044 
     26 O          26.7926   25.0506    0.8306 O.2       3 UNK        -0.5152 
     27 CA         26.5908   25.0847   -1.5719 C.3       3 UNK         0.0319 
     28 CB         27.7091   25.9030   -2.2350 C.3       3 UNK        -0.2001 
     29 N          26.9904   23.6792   -1.5578 N.am      3 UNK        -0.4354 
     30 C          26.1743   22.6428   -1.3384 C.2       2 UNK         0.4964 
     31 O          24.9495   22.7436   -1.2533 O.2       2 UNK        -0.5047 
     32 CA         26.8281   21.2594   -1.1663 C.3       2 UNK         0.0288 
     33 CB         27.1663   20.6199   -2.5278 C.3       2 UNK        -0.2113 
     34 N          27.9817   21.2552   -0.2532 N.am      2 UNK        -0.4145 
     35 C          29.1963   21.8032   -0.4080 C.2       1 UNK         0.5006 
     36 O          29.5501   22.4153   -1.4184 O.2       1 UNK        -0.5103 
     37 C          27.4729   29.3499    4.3524 C.2       5 UNK         0.5055 
     38 O          26.5350   29.2684    5.1502 O.2       5 UNK        -0.5220 
     39 N          28.1352   30.4811    4.0857 N.am      6 UNK        -0.4450 
     40 CA         27.9111   31.7632    4.7551 C.3       6 UNK         0.0367 
     41 CB         28.0331   32.8955    3.7218 C.3       6 UNK        -0.1929 
     42 C          28.9142   31.9761    5.9000 C.2       6 UNK         0.5070 
     43 O          28.5559   32.5657    6.9197 O.2       6 UNK        -0.5237 
     44 N          30.1436   31.4870    5.7143 N.am      7 UNK        -0.4739 
     45 CA         31.2646   31.5064    6.6512 C.3       7 UNK         0.0276 
     46 CB         31.8492   32.9284    6.7769 C.3       7 UNK        -0.1927 
     47 C          32.3044   30.5043    6.1300 C.2       7 UNK         0.5013 
     48 O          32.1122   29.9582    5.0418 O.2       7 UNK        -0.5193 
     49 N          33.3790   30.2733    6.8972 N.am      8 UNK        -0.4253 
     50 CA         34.4540   29.3126    6.6086 C.3       8 UNK         0.0242 
     51 CB         35.5630   29.4660    7.6644 C.3       8 UNK        -0.2000 
     52 C          35.0239   29.4330    5.1793 C.2       8 UNK         0.4948 
     53 O          35.7915   30.3572    4.9040 O.2       8 UNK        -0.5275 
     54 N          34.5936   28.5096    4.3058 N.am      9 UNK        -0.4246 
     55 CA         34.8745   28.4274    2.8674 C.3       9 UNK         0.0261 
     56 CB         36.3764   28.1793    2.6100 C.3       9 UNK        -0.1959 
     57 C          34.3114   29.6025    2.0355 C.2       9 UNK         0.5033 
     58 O          34.8060   29.8428    0.9320 O.2       9 UNK        -0.5390 
     59 N          33.2837   30.2971    2.5432 N.am      10 UNK        -0.4215 
     60 CA         32.5840   31.3866    1.8661 C.3       10 UNK         0.0240 
     61 CB         32.5810   32.6320    2.7664 C.3       10 UNK        -0.1982 
     62 C          31.1501   30.9372    1.5682 C.2       10 UNK         0.4970 
     63 O          30.4276   30.5533    2.4904 O.2       10 UNK        -0.4916 
     64 N          30.7745   30.9998    0.2886 N.am      11 UNK        -0.4279 
     65 CA         29.4597   30.6073   -0.2446 C.3       11 UNK         0.1003 
     66 C          28.8082   31.7316   -1.1037 C.2       11 UNK         0.5709 
     67 N          29.3151   32.9600   -1.0868 N.am      11 UNK        -0.7358 
     68 O          27.8153   31.5001   -1.7893 O.2       11 UNK        -0.4999 
     69 C69        29.5460   29.2484   -0.9986 C.3       12 UNK        -0.0954 
     70 S70        29.6701   27.8336    0.1403 S.3       12 UNK        -0.2268 
     71 C71        31.4648   27.5519    0.2261 C.3       12 UNK         0.0203 
     72 H72        28.0200   22.8026    4.7091 H         1 UNK         0.0888 
     73 H73        29.2775   23.8615    4.0774 H         1 UNK         0.0888 
     74 H74        27.6152   24.0011    3.4746 H         1 UNK         0.0888 
     75 H75        30.2110   23.4190    1.9991 H         1 UNK         0.3017 
     76 H76        30.0948   20.6532    1.1473 H         1 UNK         0.0873 
     77 H77        31.7381   22.9598    0.0012 H         1 UNK         0.0745 
     78 H78        31.9499   21.2678   -0.3572 H         1 UNK         0.0745 
     79 H79        34.2039   23.3955    0.8550 H         1 UNK         0.0705 
     80 H80        34.4998   23.2355    2.5650 H         1 UNK         0.0705 
     81 H81        32.8657   25.2187    0.0733 H         1 UNK         0.1334 
     82 H82        30.8934   27.7865    2.8630 H         1 UNK         0.1417 
     83 H83        32.6523   24.1038    4.2046 H         1 UNK         0.1562 
     84 H84        32.0987   26.3736    5.7602 H         1 UNK         0.0748 
     85 H85        30.7711   25.2662    5.5261 H         1 UNK         0.0748 
     86 H86        27.7992   26.6919    5.2848 H         1 UNK         0.0940 
     87 H87        28.7860   26.1306    3.9605 H         1 UNK         0.0940 
     88 H88        28.7067   28.3797    2.8833 H         1 UNK         0.0703 
     89 H89        26.5244   26.5976    3.1009 H         1 UNK         0.3081 
     90 H90        24.7329   26.5371    1.8678 H         1 UNK         0.0719 
     91 H91        23.5098   28.7176    1.7889 H         1 UNK         0.0809 
     92 H92        24.0702   28.9839    0.1447 H         1 UNK         0.0809 
     93 H93        22.9939   27.6344    0.5065 H         1 UNK         0.0809 
     94 H94        25.1322   27.0724   -0.9340 H         1 UNK         0.2990 
     95 H95        25.6842   25.1800   -2.1735 H         1 UNK         0.0690 
     96 H96        27.8557   25.6031   -3.2727 H         1 UNK         0.0788 
     97 H97        28.6592   25.7753   -1.7154 H         1 UNK         0.0788 
     98 H98        27.4743   26.9679   -2.2359 H         1 UNK         0.0788 
     99 H99        27.9868   23.4829   -1.5878 H         1 UNK         0.2993 
    100 H100       26.0804   20.6244   -0.6880 H         1 UNK         0.0949 
    101 H101       27.8898   21.2095   -3.0915 H         1 UNK         0.0767 
    102 H102       27.5745   19.6168   -2.4037 H         1 UNK         0.0767 
    103 H103       26.2719   20.5318   -3.1461 H         1 UNK         0.0767 
    104 H104       27.7865   20.8921    0.6764 H         1 UNK         0.3013 
    105 H105       28.9133   30.4485    3.4262 H         1 UNK         0.3121 
    106 H106       26.9042   31.7938    5.1770 H         1 UNK         0.0774 
    107 H107       27.8488   33.8661    4.1840 H         1 UNK         0.0815 
    108 H108       29.0272   32.9303    3.2739 H         1 UNK         0.0815 
    109 H109       27.3082   32.7754    2.9165 H         1 UNK         0.0815 
    110 H110       30.3499   30.9616    4.8694 H         1 UNK         0.2987 
    111 H111       30.9131   31.1602    7.6253 H         1 UNK         0.0949 
    112 H112       31.0997   33.6402    7.1226 H         1 UNK         0.0806 
    113 H113       32.6672   32.9572    7.4973 H         1 UNK         0.0806 
    114 H114       32.2405   33.2942    5.8281 H         1 UNK         0.0806 
    115 H115       33.4643   30.7840    7.7637 H         1 UNK         0.3010 
    116 H116       34.0273   28.3139    6.7231 H         1 UNK         0.0829 
    117 H117       35.1891   29.2636    8.6682 H         1 UNK         0.0813 
    118 H118       36.3790   28.7666    7.4773 H         1 UNK         0.0813 
    119 H119       35.9885   30.4705    7.6599 H         1 UNK         0.0813 
    120 H120       33.9134   27.8408    4.6393 H         1 UNK         0.3038 
    121 H121       34.3417   27.5430    2.5168 H         1 UNK         0.0769 
    122 H122       36.5618   27.9527    1.5594 H         1 UNK         0.0811 
    123 H123       36.7442   27.3333    3.1904 H         1 UNK         0.0811 
    124 H124       36.9799   29.0508    2.8648 H         1 UNK         0.0811 
    125 H125       32.8887   30.0252    3.4455 H         1 UNK         0.3204 
    126 H126       33.0864   31.6458    0.9320 H         1 UNK         0.0748 
    127 H127       32.1254   33.4815    2.2565 H         1 UNK         0.0771 
    128 H128       32.0158   32.4625    3.6817 H         1 UNK         0.0771 
    129 H129       33.5937   32.9223    3.0466 H         1 UNK         0.0771 
    130 H130       31.4326   31.3347   -0.4003 H         1 UNK         0.2980 
    131 H131       28.7621   30.4863    0.5856 H         1 UNK         0.0545 
    132 H132       28.8776   33.6763   -1.6449 H         1 UNK         0.3459 
    133 H133       30.0994   33.1906   -0.4993 H         1 UNK         0.3459 
    134 H134       28.6475   29.0726   -1.5917 H         1 UNK         0.0616 
    135 H135       30.3794   29.2386   -1.7028 H         1 UNK         0.0616 
    136 H136       31.8037   27.1696   -0.7377 H         1 UNK         0.0634 
    137 H137       31.9900   28.4908    0.3888 H         1 UNK         0.0634 
@<TRIPOS>BOND
     1    1    2 1    
     2    1   72 1    
     3    1   73 1    
     4    1   74 1    
     5    2    3 2    
     6    2    4 am   BACKBONE|DICT|INTERRES
     7    4    5 1    
     8    4   75 1    
     9    5    6 1    
    10    5   35 1    
    11    5   76 1    
    12    6    7 1    
    13    6   77 1    
    14    6   78 1    
    15    7    8 1    
    16    8    9 1    
    17    8   79 1    
    18    8   80 1    
    19    9   10 ar   
    20    9   14 ar   
    21   10   11 ar   
    22   10   81 1    
    23   11   12 ar   
    24   11   71 1    
    25   12   13 ar   
    26   12   82 1    
    27   13   14 ar   
    28   13   15 1    
    29   14   83 1    
    30   15   16 1    
    31   15   84 1    
    32   15   85 1    
    33   16   17 1    
    34   17   18 1    
    35   17   86 1    
    36   17   87 1    
    37   18   19 1    
    38   18   37 1    
    39   18   88 1    
    40   19   20 am   BACKBONE|DICT|INTERRES
    41   19   89 1    
    42   20   21 2    
    43   20   22 1    
    44   22   23 1    
    45   22   24 1    
    46   22   90 1    
    47   23   91 1    
    48   23   92 1    
    49   23   93 1    
    50   24   25 am   BACKBONE|DICT|INTERRES
    51   24   94 1    
    52   25   26 2    
    53   25   27 1    
    54   27   28 1    
    55   27   29 1    
    56   27   95 1    
    57   28   96 1    
    58   28   97 1    
    59   28   98 1    
    60   29   30 am   BACKBONE|DICT|INTERRES
    61   29   99 1    
    62   30   31 2    
    63   30   32 1    
    64   32   33 1    
    65   32   34 1    
    66   32  100 1    
    67   33  101 1    
    68   33  102 1    
    69   33  103 1    
    70   34   35 am   BACKBONE|DICT|INTERRES
    71   34  104 1    
    72   35   36 2    
    73   37   38 2    
    74   37   39 am   BACKBONE|DICT|INTERRES
    75   39   40 1    
    76   39  105 1    
    77   40   41 1    
    78   40   42 1    
    79   40  106 1    
    80   41  107 1    
    81   41  108 1    
    82   41  109 1    
    83   42   43 2    
    84   42   44 am   BACKBONE|DICT|INTERRES
    85   44   45 1    
    86   44  110 1    
    87   45   46 1    
    88   45   47 1    
    89   45  111 1    
    90   46  112 1    
    91   46  113 1    
    92   46  114 1    
    93   47   48 2    
    94   47   49 am   BACKBONE|DICT|INTERRES
    95   49   50 1    
    96   49  115 1    
    97   50   51 1    
    98   50   52 1    
    99   50  116 1    
   100   51  117 1    
   101   51  118 1    
   102   51  119 1    
   103   52   53 2    
   104   52   54 am   BACKBONE|DICT|INTERRES
   105   54   55 1    
   106   54  120 1    
   107   55   56 1    
   108   55   57 1    
   109   55  121 1    
   110   56  122 1    
   111   56  123 1    
   112   56  124 1    
   113   57   58 2    
   114   57   59 am   BACKBONE|DICT|INTERRES
   115   59   60 1    
   116   59  125 1    
   117   60   61 1    
   118   60   62 1    
   119   60  126 1    
   120   61  127 1    
   121   61  128 1    
   122   61  129 1    
   123   62   63 2    
   124   62   64 am   BACKBONE|DICT|INTERRES
   125   64   65 1    
   126   64  130 1    
   127   65   66 1    
   128   65   69 1    
   129   65  131 1    
   130   66   67 am   BACKBONE|DICT|INTERRES
   131   66   68 2    
   132   67  132 1    
   133   67  133 1    
   134   69   70 1    
   135   69  134 1    
   136   69  135 1    
   137   70   71 1    
   138   71  136 1    
   139   71  137 1    
@<TRIPOS>SUBSTRUCTURE
     1 UNK         1 GROUP             0       ****    0 ROOT    
