@<TRIPOS>MOLECULE
3R136
137   139    1
SMALL
USER_CHARGES


@<TRIPOS>ATOM
      1 CA         26.2579   18.4470    3.0408 C.3       0 UNK        -0.1979 
      2 C          27.0949   19.0737    1.9352 C.2       0 UNK         0.4864 
      3 O          28.1028   18.4945    1.5275 O.2       0 UNK        -0.5359 
      4 N          26.6859   20.2493    1.4480 N.am      1 UNK        -0.4318 
      5 CA         27.3391   20.9963    0.3773 C.3       1 UNK         0.0824 
      6 C6         28.5223   21.8430    0.9120 C.3       12 UNK        -0.0944 
      7 S7         29.5427   22.5805   -0.4121 S.3       12 UNK        -0.2672 
      8 C8         31.2255   22.0813    0.0777 C.3       12 UNK         0.0333 
      9 C9         31.7873   22.9847    1.1676 C.ar      12 UNK        -0.0807 
     10 C10        32.6300   24.0516    0.8354 C.ar      12 UNK        -0.0894 
     11 C11        33.1547   24.8766    1.8355 C.ar      12 UNK        -0.0804 
     12 C12        32.8229   24.6394    3.1714 C.ar      12 UNK        -0.0824 
     13 C13        31.9578   23.5982    3.5107 C.ar      12 UNK        -0.0762 
     14 C14        31.4657   22.7576    2.5094 C.ar      12 UNK        -0.0782 
     15 C15        31.5148   23.4079    4.9514 C.3       12 UNK         0.0230 
     16 S16        29.7996   23.9762    5.1829 S.3       12 UNK        -0.2608 
     17 C17        29.9521   25.7876    4.9709 C.3       12 UNK        -0.0989 
     18 CA         29.6571   26.2974    3.5277 C.3       5 UNK         0.0716 
     19 N          28.4285   25.7543    2.9348 N.am      5 UNK        -0.4135 
     20 C          27.1708   25.8918    3.3787 C.2       4 UNK         0.5031 
     21 O          26.8690   26.4730    4.4223 O.2       4 UNK        -0.5229 
     22 CA         26.0633   25.3057    2.4728 C.3       4 UNK         0.0329 
     23 CB         24.6971   25.9878    2.6940 C.3       4 UNK        -0.2001 
     24 N          26.4046   25.3041    1.0403 N.am      4 UNK        -0.4303 
     25 C          26.7723   26.3621    0.2960 C.2       3 UNK         0.5044 
     26 O          26.8559   27.5045    0.7433 O.2       3 UNK        -0.5152 
     27 CA         27.1776   26.1154   -1.1690 C.3       3 UNK         0.0319 
     28 CB         28.6908   26.3363   -1.3412 C.3       3 UNK        -0.2001 
     29 N          26.8389   24.7735   -1.6454 N.am      3 UNK        -0.4354 
     30 C          25.6203   24.3918   -2.0544 C.2       2 UNK         0.4964 
     31 O          24.6582   25.1537   -2.1503 O.2       2 UNK        -0.5047 
     32 CA         25.4378   22.8982   -2.3838 C.3       2 UNK         0.0288 
     33 CB         25.6600   22.6455   -3.8838 C.3       2 UNK        -0.2113 
     34 N          26.3214   22.0207   -1.6064 N.am      2 UNK        -0.4145 
     35 C          26.2620   21.8722   -0.2756 C.2       1 UNK         0.5006 
     36 O          25.4319   22.4367    0.4422 O.2       1 UNK        -0.5103 
     37 C          29.7692   27.8407    3.4354 C.2       5 UNK         0.5055 
     38 O          30.6968   28.4025    4.0238 O.2       5 UNK        -0.5220 
     39 N          28.8562   28.5114    2.7146 N.am      6 UNK        -0.4450 
     40 CA         28.8395   29.9645    2.5498 C.3       6 UNK         0.0367 
     41 CB         27.4197   30.4227    2.1799 C.3       6 UNK        -0.1929 
     42 C          29.8449   30.4154    1.4796 C.2       6 UNK         0.5070 
     43 O          30.0799   29.6953    0.5071 O.2       6 UNK        -0.5237 
     44 N          30.3789   31.6252    1.6638 N.am      7 UNK        -0.4739 
     45 CA         31.3086   32.3146    0.7708 C.3       7 UNK         0.0276 
     46 CB         32.6900   31.6211    0.7708 C.3       7 UNK        -0.1927 
     47 C          31.3475   33.7820    1.2240 C.2       7 UNK         0.5013 
     48 O          30.2900   34.3400    1.5267 O.2       7 UNK        -0.5193 
     49 N          32.5468   34.3723    1.3286 N.am      8 UNK        -0.4253 
     50 CA         32.7941   35.6230    2.0495 C.3       8 UNK         0.0242 
     51 CB         34.1952   36.1498    1.6912 C.3       8 UNK        -0.2000 
     52 C          32.6473   35.3479    3.5558 C.2       8 UNK         0.4948 
     53 O          33.5838   34.8393    4.1746 O.2       8 UNK        -0.5275 
     54 N          31.4349   35.5816    4.0763 N.am      9 UNK        -0.4246 
     55 CA         30.8923   35.0889    5.3474 C.3       9 UNK         0.0261 
     56 CB         31.7146   35.5427    6.5730 C.3       9 UNK        -0.1959 
     57 C          30.6741   33.5664    5.2961 C.2       9 UNK         0.5033 
     58 O          29.5295   33.1276    5.1768 O.2       9 UNK        -0.5390 
     59 N          31.7634   32.7928    5.3375 N.am      10 UNK        -0.4215 
     60 CA         31.7738   31.3377    5.2228 C.3       10 UNK         0.0240 
     61 CB         31.3449   30.6893    6.5529 C.3       10 UNK        -0.1982 
     62 C          33.1753   30.8776    4.8159 C.2       10 UNK         0.4970 
     63 O          34.1538   31.5333    5.1814 O.2       10 UNK        -0.4916 
     64 N          33.2432   29.7509    4.0995 N.am      11 UNK        -0.4279 
     65 CA         34.4944   29.0618    3.7405 C.3       11 UNK         0.1003 
     66 C          34.8194   27.8499    4.6613 C.2       11 UNK         0.5709 
     67 N          33.9590   27.4774    5.6031 N.am      11 UNK        -0.7358 
     68 O          35.8838   27.2497    4.5350 O.2       11 UNK        -0.4999 
     69 C69        34.5581   28.7059    2.2295 C.3       12 UNK        -0.0954 
     70 S70        33.2048   27.6240    1.6542 S.3       12 UNK        -0.2268 
     71 C71        34.0748   26.0341    1.4905 C.3       12 UNK         0.0203 
     72 H72        26.8633   18.3075    3.9360 H         1 UNK         0.0888 
     73 H73        25.4011   19.0670    3.3045 H         1 UNK         0.0888 
     74 H74        25.8869   17.4726    2.7243 H         1 UNK         0.0888 
     75 H75        25.8337   20.6814    1.7847 H         1 UNK         0.3017 
     76 H76        27.7068   20.2855   -0.3666 H         1 UNK         0.0873 
     77 H77        28.1766   22.6344    1.5799 H         1 UNK         0.0745 
     78 H78        29.1556   21.1979    1.5194 H         1 UNK         0.0745 
     79 H79        31.2303   21.0402    0.4042 H         1 UNK         0.0705 
     80 H80        31.8673   22.1211   -0.8037 H         1 UNK         0.0705 
     81 H81        32.8778   24.2388   -0.2006 H         1 UNK         0.1334 
     82 H82        33.2099   25.2921    3.9415 H         1 UNK         0.1417 
     83 H83        30.8093   21.9446    2.7825 H         1 UNK         0.1562 
     84 H84        32.1745   23.9368    5.6411 H         1 UNK         0.0748 
     85 H85        31.5782   22.3511    5.2147 H         1 UNK         0.0748 
     86 H86        30.9528   26.0913    5.2836 H         1 UNK         0.0940 
     87 H87        29.2684   26.2582    5.6797 H         1 UNK         0.0940 
     88 H88        30.4528   25.9320    2.8804 H         1 UNK         0.0703 
     89 H89        28.5608   25.2563    2.0674 H         1 UNK         0.3081 
     90 H90        25.9611   24.2585    2.7619 H         1 UNK         0.0719 
     91 H91        24.7392   27.0553    2.4750 H         1 UNK         0.0809 
     92 H92        23.9272   25.5454    2.0617 H         1 UNK         0.0809 
     93 H93        24.3663   25.8800    3.7277 H         1 UNK         0.0809 
     94 H94        26.3176   24.4056    0.5813 H         1 UNK         0.2990 
     95 H95        26.6534   26.8521   -1.7815 H         1 UNK         0.0690 
     96 H96        28.9945   26.2146   -2.3810 H         1 UNK         0.0788 
     97 H97        29.2754   25.6417   -0.7369 H         1 UNK         0.0788 
     98 H98        28.9760   27.3456   -1.0389 H         1 UNK         0.0788 
     99 H99        27.5752   24.0819   -1.6117 H         1 UNK         0.2993 
    100 H100       24.4059   22.6357   -2.1395 H         1 UNK         0.0949 
    101 H101       24.9977   23.2688   -4.4866 H         1 UNK         0.0767 
    102 H102       26.6838   22.8712   -4.1852 H         1 UNK         0.0767 
    103 H103       25.4524   21.6079   -4.1467 H         1 UNK         0.0767 
    104 H104       27.0429   21.5344   -2.1203 H         1 UNK         0.3013 
    105 H105       28.1609   27.9986    2.1813 H         1 UNK         0.3121 
    106 H106       29.0975   30.4225    3.5062 H         1 UNK         0.0774 
    107 H107       27.1276   30.0751    1.1885 H         1 UNK         0.0815 
    108 H108       27.3528   31.5113    2.1727 H         1 UNK         0.0815 
    109 H109       26.6830   30.0565    2.8952 H         1 UNK         0.0815 
    110 H110       30.0525   32.1925    2.4370 H         1 UNK         0.2987 
    111 H111       30.8990   32.2965   -0.2412 H         1 UNK         0.0949 
    112 H112       32.6097   30.5776    0.4669 H         1 UNK         0.0806 
    113 H113       33.3751   32.0937    0.0662 H         1 UNK         0.0806 
    114 H114       33.1520   31.6419    1.7583 H         1 UNK         0.0806 
    115 H115       33.3638   33.8336    1.0804 H         1 UNK         0.3010 
    116 H116       32.0581   36.3701    1.7435 H         1 UNK         0.0829 
    117 H117       34.9786   35.4341    1.9444 H         1 UNK         0.0813 
    118 H118       34.2749   36.3701    0.6266 H         1 UNK         0.0813 
    119 H119       34.4116   37.0729    2.2304 H         1 UNK         0.0813 
    120 H120       30.7337   35.9374    3.4389 H         1 UNK         0.3038 
    121 H121       29.9043   35.5428    5.4423 H         1 UNK         0.0769 
    122 H122       32.7208   35.1245    6.5880 H         1 UNK         0.0811 
    123 H123       31.2266   35.2334    7.4981 H         1 UNK         0.0811 
    124 H124       31.8064   36.6283    6.6039 H         1 UNK         0.0811 
    125 H125       32.6804   33.2329    5.3331 H         1 UNK         0.3204 
    126 H126       31.0799   31.0466    4.4353 H         1 UNK         0.0748 
    127 H127       31.3593   29.6011    6.4814 H         1 UNK         0.0771 
    128 H128       32.0078   30.9744    7.3707 H         1 UNK         0.0771 
    129 H129       30.3301   30.9765    6.8279 H         1 UNK         0.0771 
    130 H130       32.3838   29.2471    3.8873 H         1 UNK         0.2980 
    131 H131       35.3250   29.7489    3.9106 H         1 UNK         0.0545 
    132 H132       34.1956   26.7083    6.2090 H         1 UNK         0.3459 
    133 H133       33.0854   27.9644    5.7183 H         1 UNK         0.3459 
    134 H134       34.5184   29.6230    1.6435 H         1 UNK         0.0616 
    135 H135       35.5220   28.2591    1.9800 H         1 UNK         0.0616 
    136 H136       34.4624   25.9405    0.4751 H         1 UNK         0.0634 
    137 H137       34.9386   26.0014    2.1556 H         1 UNK         0.0634 
@<TRIPOS>BOND
     1    1    2 1    
     2    1   72 1    
     3    1   73 1    
     4    1   74 1    
     5    2    3 2    
     6    2    4 am   BACKBONE|DICT|INTERRES
     7    4    5 1    
     8    4   75 1    
     9    5    6 1    
    10    5   35 1    
    11    5   76 1    
    12    6    7 1    
    13    6   77 1    
    14    6   78 1    
    15    7    8 1    
    16    8    9 1    
    17    8   79 1    
    18    8   80 1    
    19    9   10 ar   
    20    9   14 ar   
    21   10   11 ar   
    22   10   81 1    
    23   11   12 ar   
    24   11   71 1    
    25   12   13 ar   
    26   12   82 1    
    27   13   14 ar   
    28   13   15 1    
    29   14   83 1    
    30   15   16 1    
    31   15   84 1    
    32   15   85 1    
    33   16   17 1    
    34   17   18 1    
    35   17   86 1    
    36   17   87 1    
    37   18   19 1    
    38   18   37 1    
    39   18   88 1    
    40   19   20 am   BACKBONE|DICT|INTERRES
    41   19   89 1    
    42   20   21 2    
    43   20   22 1    
    44   22   23 1    
    45   22   24 1    
    46   22   90 1    
    47   23   91 1    
    48   23   92 1    
    49   23   93 1    
    50   24   25 am   BACKBONE|DICT|INTERRES
    51   24   94 1    
    52   25   26 2    
    53   25   27 1    
    54   27   28 1    
    55   27   29 1    
    56   27   95 1    
    57   28   96 1    
    58   28   97 1    
    59   28   98 1    
    60   29   30 am   BACKBONE|DICT|INTERRES
    61   29   99 1    
    62   30   31 2    
    63   30   32 1    
    64   32   33 1    
    65   32   34 1    
    66   32  100 1    
    67   33  101 1    
    68   33  102 1    
    69   33  103 1    
    70   34   35 am   BACKBONE|DICT|INTERRES
    71   34  104 1    
    72   35   36 2    
    73   37   38 2    
    74   37   39 am   BACKBONE|DICT|INTERRES
    75   39   40 1    
    76   39  105 1    
    77   40   41 1    
    78   40   42 1    
    79   40  106 1    
    80   41  107 1    
    81   41  108 1    
    82   41  109 1    
    83   42   43 2    
    84   42   44 am   BACKBONE|DICT|INTERRES
    85   44   45 1    
    86   44  110 1    
    87   45   46 1    
    88   45   47 1    
    89   45  111 1    
    90   46  112 1    
    91   46  113 1    
    92   46  114 1    
    93   47   48 2    
    94   47   49 am   BACKBONE|DICT|INTERRES
    95   49   50 1    
    96   49  115 1    
    97   50   51 1    
    98   50   52 1    
    99   50  116 1    
   100   51  117 1    
   101   51  118 1    
   102   51  119 1    
   103   52   53 2    
   104   52   54 am   BACKBONE|DICT|INTERRES
   105   54   55 1    
   106   54  120 1    
   107   55   56 1    
   108   55   57 1    
   109   55  121 1    
   110   56  122 1    
   111   56  123 1    
   112   56  124 1    
   113   57   58 2    
   114   57   59 am   BACKBONE|DICT|INTERRES
   115   59   60 1    
   116   59  125 1    
   117   60   61 1    
   118   60   62 1    
   119   60  126 1    
   120   61  127 1    
   121   61  128 1    
   122   61  129 1    
   123   62   63 2    
   124   62   64 am   BACKBONE|DICT|INTERRES
   125   64   65 1    
   126   64  130 1    
   127   65   66 1    
   128   65   69 1    
   129   65  131 1    
   130   66   67 am   BACKBONE|DICT|INTERRES
   131   66   68 2    
   132   67  132 1    
   133   67  133 1    
   134   69   70 1    
   135   69  134 1    
   136   69  135 1    
   137   70   71 1    
   138   71  136 1    
   139   71  137 1    
@<TRIPOS>SUBSTRUCTURE
     1 UNK         1 GROUP             0       ****    0 ROOT    
