@<TRIPOS>MOLECULE
3R136
137   139    1
SMALL
USER_CHARGES


@<TRIPOS>ATOM
      1 CA         24.9938   20.8724    0.6725 C.3       0 UNK        -0.1979 
      2 C          25.9420   22.0609    0.6641 C.2       0 UNK         0.4864 
      3 O          25.8284   22.9231   -0.2087 O.2       0 UNK        -0.5359 
      4 N          26.8643   22.1226    1.6369 N.am      1 UNK        -0.4318 
      5 CA         27.9016   23.1544    1.7842 C.3       1 UNK         0.0824 
      6 C6         28.7502   22.9493    3.0634 C.3       12 UNK        -0.0944 
      7 S7         29.7974   21.4627    2.9460 S.3       12 UNK        -0.2672 
      8 C8         31.4280   22.1146    3.4612 C.3       12 UNK         0.0333 
      9 C9         32.0061   23.2306    2.5860 C.ar      12 UNK        -0.0807 
     10 C10        32.8984   24.1434    3.1594 C.ar      12 UNK        -0.0894 
     11 C11        33.4811   25.1567    2.3921 C.ar      12 UNK        -0.0804 
     12 C12        33.1624   25.2552    1.0357 C.ar      12 UNK        -0.0824 
     13 C13        32.2359   24.3830    0.4520 C.ar      12 UNK        -0.0762 
     14 C14        31.6868   23.3574    1.2279 C.ar      12 UNK        -0.0782 
     15 C15        31.7967   24.5276   -1.0066 C.3       12 UNK         0.0230 
     16 S16        31.7818   26.2423   -1.6454 S.3       12 UNK        -0.2608 
     17 C17        30.8067   27.1314   -0.3826 C.3       12 UNK        -0.0989 
     18 CA         29.5251   27.8089   -0.9337 C.3       5 UNK         0.0716 
     19 N          28.5370   26.8101   -1.3386 N.am      5 UNK        -0.4135 
     20 C          28.2670   26.4486   -2.5971 C.2       4 UNK         0.5031 
     21 O          28.7450   26.9988   -3.5908 O.2       4 UNK        -0.5229 
     22 CA         27.3256   25.2479   -2.7933 C.3       4 UNK         0.0329 
     23 CB         28.0954   23.9280   -2.6228 C.3       4 UNK        -0.2001 
     24 N          26.1721   25.2453   -1.8949 N.am      4 UNK        -0.4303 
     25 C          25.1413   26.0990   -1.9675 C.2       3 UNK         0.5044 
     26 O          25.0537   27.0054   -2.7966 O.2       3 UNK        -0.5152 
     27 CA         24.0130   25.9009   -0.9444 C.3       3 UNK         0.0319 
     28 CB         23.0817   24.7528   -1.3682 C.3       3 UNK        -0.2001 
     29 N          24.5649   25.6257    0.3819 N.am      3 UNK        -0.4354 
     30 C          24.8548   26.5754    1.2824 C.2       2 UNK         0.4964 
     31 O          24.5484   27.7602    1.1438 O.2       2 UNK        -0.5047 
     32 CA         25.5959   26.1484    2.5638 C.3       2 UNK         0.0288 
     33 CB         24.6427   26.1479    3.7703 C.3       2 UNK        -0.2113 
     34 N          26.2549   24.8415    2.4776 N.am      2 UNK        -0.4145 
     35 C          27.3485   24.5891    1.7443 C.2       1 UNK         0.5006 
     36 O          27.9059   25.4200    1.0316 O.2       1 UNK        -0.5103 
     37 C          28.9227   28.7238    0.1481 C.2       5 UNK         0.5055 
     38 O          27.8791   28.4165    0.7288 O.2       5 UNK        -0.5220 
     39 N          29.6376   29.8135    0.4593 N.am      6 UNK        -0.4450 
     40 CA         29.3952   30.6641    1.6266 C.3       6 UNK         0.0367 
     41 CB         29.9830   32.0612    1.3584 C.3       6 UNK        -0.1929 
     42 C          29.9892   30.0009    2.8853 C.2       6 UNK         0.5070 
     43 O          31.0079   30.4559    3.4061 O.2       6 UNK        -0.5237 
     44 N          29.3608   28.8996    3.3189 N.am      7 UNK        -0.4739 
     45 CA         29.8365   27.9892    4.3699 C.3       7 UNK         0.0276 
     46 CB         28.9040   26.7721    4.4395 C.3       7 UNK        -0.1927 
     47 C          30.0167   28.6083    5.7677 C.2       7 UNK         0.5013 
     48 O          30.7088   28.0185    6.5997 O.2       7 UNK        -0.5193 
     49 N          29.4166   29.7804    6.0116 N.am      8 UNK        -0.4253 
     50 CA         29.5694   30.5799    7.2287 C.3       8 UNK         0.0242 
     51 CB         28.4030   31.5823    7.3125 C.3       8 UNK        -0.2000 
     52 C          30.9476   31.2709    7.2795 C.2       8 UNK         0.4948 
     53 O          31.0265   32.4976    7.1953 O.2       8 UNK        -0.5275 
     54 N          32.0131   30.4622    7.3684 N.am      9 UNK        -0.4246 
     55 CA         33.4452   30.7938    7.4527 C.3       9 UNK         0.0261 
     56 CB         33.7498   31.6073    8.7255 C.3       9 UNK        -0.1959 
     57 C          34.0552   31.4771    6.2122 C.2       9 UNK         0.5033 
     58 O          35.2405   31.2699    5.9456 O.2       9 UNK        -0.5390 
     59 N          33.2606   32.2639    5.4758 N.am      10 UNK        -0.4215 
     60 CA         33.6490   33.0464    4.2974 C.3       10 UNK         0.0240 
     61 CB         32.4316   33.8419    3.8030 C.3       10 UNK        -0.1982 
     62 C          34.2733   32.2310    3.1498 C.2       10 UNK         0.4970 
     63 O          35.0835   32.7815    2.4027 O.2       10 UNK        -0.4916 
     64 N          33.9173   30.9447    3.0430 N.am      11 UNK        -0.4279 
     65 CA         34.5456   29.9704    2.1404 C.3       11 UNK         0.1003 
     66 C          36.0471   29.6602    2.4275 C.2       11 UNK         0.5709 
     67 N          36.5966   30.0109    3.5858 N.am      11 UNK        -0.7358 
     68 O          36.7273   29.0962    1.5737 O.2       11 UNK        -0.4999 
     69 C69        33.6936   28.6799    2.0196 C.3       12 UNK        -0.0954 
     70 S70        33.6304   27.6775    3.5489 S.3       12 UNK        -0.2268 
     71 C71        34.4570   26.1381    3.0297 C.3       12 UNK         0.0203 
     72 H72        25.1932   20.1965    1.5038 H         1 UNK         0.0888 
     73 H73        23.9632   21.2168    0.7531 H         1 UNK         0.0888 
     74 H74        25.0935   20.3096   -0.2551 H         1 UNK         0.0888 
     75 H75        26.9092   21.3743    2.3143 H         1 UNK         0.3017 
     76 H76        28.5581   23.0601    0.9170 H         1 UNK         0.0873 
     77 H77        28.1130   22.8613    3.9454 H         1 UNK         0.0745 
     78 H78        29.3923   23.8135    3.2446 H         1 UNK         0.0745 
     79 H79        31.3401   22.4610    4.4923 H         1 UNK         0.0705 
     80 H80        32.1391   21.2877    3.4748 H         1 UNK         0.0705 
     81 H81        33.1491   24.0605    4.2084 H         1 UNK         0.1334 
     82 H82        33.6189   26.0293    0.4374 H         1 UNK         0.1417 
     83 H83        31.0007   22.6605    0.7682 H         1 UNK         0.1562 
     84 H84        30.7934   24.1195   -1.1324 H         1 UNK         0.0748 
     85 H85        32.4567   23.9266   -1.6330 H         1 UNK         0.0748 
     86 H86        31.4844   27.8668    0.0508 H         1 UNK         0.0940 
     87 H87        30.5421   26.4579    0.4352 H         1 UNK         0.0940 
     88 H88        29.7865   28.4450   -1.7820 H         1 UNK         0.0703 
     89 H89        28.0819   26.3350   -0.5603 H         1 UNK         0.3081 
     90 H90        26.9508   25.2890   -3.8183 H         1 UNK         0.0719 
     91 H91        28.4288   23.7890   -1.5940 H         1 UNK         0.0809 
     92 H92        27.4751   23.0717   -2.8883 H         1 UNK         0.0809 
     93 H93        28.9787   23.9016   -3.2626 H         1 UNK         0.0809 
     94 H94        26.1316   24.4932   -1.2110 H         1 UNK         0.2990 
     95 H95        23.4181   26.8165   -0.9171 H         1 UNK         0.0690 
     96 H96        22.6423   24.9510   -2.3467 H         1 UNK         0.0788 
     97 H97        22.2596   24.6304   -0.6629 H         1 UNK         0.0788 
     98 H98        23.6085   23.8005   -1.4358 H         1 UNK         0.0788 
     99 H99        24.8775   24.6773    0.5511 H         1 UNK         0.2993 
    100 H100       26.3673   26.9019    2.7367 H         1 UNK         0.0949 
    101 H101       25.1768   25.9408    4.6980 H         1 UNK         0.0767 
    102 H102       24.1598   27.1192    3.8876 H         1 UNK         0.0767 
    103 H103       23.8537   25.4027    3.6607 H         1 UNK         0.0767 
    104 H104       25.8494   24.0890    3.0152 H         1 UNK         0.3013 
    105 H105       30.4883   29.9981   -0.0528 H         1 UNK         0.3121 
    106 H106       28.3193   30.7772    1.7781 H         1 UNK         0.0774 
    107 H107       31.0676   32.0341    1.2427 H         1 UNK         0.0815 
    108 H108       29.7554   32.7379    2.1823 H         1 UNK         0.0815 
    109 H109       29.5604   32.5030    0.4560 H         1 UNK         0.0815 
    110 H110       28.5615   28.5878    2.7783 H         1 UNK         0.2987 
    111 H111       30.8197   27.6345    4.0601 H         1 UNK         0.0949 
    112 H112       27.8858   27.0554    4.7076 H         1 UNK         0.0806 
    113 H113       28.8760   26.2567    3.4819 H         1 UNK         0.0806 
    114 H114       29.2508   26.0512    5.1815 H         1 UNK         0.0806 
    115 H115       28.9021   30.2032    5.2533 H         1 UNK         0.3010 
    116 H116       29.5037   29.9176    8.0947 H         1 UNK         0.0829 
    117 H117       27.4408   31.0705    7.3391 H         1 UNK         0.0813 
    118 H118       28.4721   32.1860    8.2185 H         1 UNK         0.0813 
    119 H119       28.3957   32.2677    6.4639 H         1 UNK         0.0813 
    120 H120       31.8075   29.4667    7.3262 H         1 UNK         0.3038 
    121 H121       33.9561   29.8343    7.5483 H         1 UNK         0.0769 
    122 H122       34.8231   31.7672    8.8373 H         1 UNK         0.0811 
    123 H123       33.2776   32.5899    8.7040 H         1 UNK         0.0811 
    124 H124       33.4053   31.0885    9.6200 H         1 UNK         0.0811 
    125 H125       32.3165   32.4028    5.8271 H         1 UNK         0.3204 
    126 H126       34.4085   33.7586    4.6256 H         1 UNK         0.0748 
    127 H127       32.6689   34.4138    2.9047 H         1 UNK         0.0771 
    128 H128       31.5993   33.1812    3.5639 H         1 UNK         0.0771 
    129 H129       32.0884   34.5499    4.5575 H         1 UNK         0.0771 
    130 H130       33.1773   30.5918    3.6374 H         1 UNK         0.2980 
    131 H131       34.5368   30.4362    1.1532 H         1 UNK         0.0545 
    132 H132       37.5685   29.8058    3.7509 H         1 UNK         0.3459 
    133 H133       36.0472   30.4646    4.3088 H         1 UNK         0.3459 
    134 H134       32.6700   28.9423    1.7537 H         1 UNK         0.0616 
    135 H135       34.0649   28.0771    1.1916 H         1 UNK         0.0616 
    136 H136       35.2758   26.3637    2.3448 H         1 UNK         0.0634 
    137 H137       34.9179   25.6834    3.9077 H         1 UNK         0.0634 
@<TRIPOS>BOND
     1    1    2 1    
     2    1   72 1    
     3    1   73 1    
     4    1   74 1    
     5    2    3 2    
     6    2    4 am   BACKBONE|DICT|INTERRES
     7    4    5 1    
     8    4   75 1    
     9    5    6 1    
    10    5   35 1    
    11    5   76 1    
    12    6    7 1    
    13    6   77 1    
    14    6   78 1    
    15    7    8 1    
    16    8    9 1    
    17    8   79 1    
    18    8   80 1    
    19    9   10 ar   
    20    9   14 ar   
    21   10   11 ar   
    22   10   81 1    
    23   11   12 ar   
    24   11   71 1    
    25   12   13 ar   
    26   12   82 1    
    27   13   14 ar   
    28   13   15 1    
    29   14   83 1    
    30   15   16 1    
    31   15   84 1    
    32   15   85 1    
    33   16   17 1    
    34   17   18 1    
    35   17   86 1    
    36   17   87 1    
    37   18   19 1    
    38   18   37 1    
    39   18   88 1    
    40   19   20 am   BACKBONE|DICT|INTERRES
    41   19   89 1    
    42   20   21 2    
    43   20   22 1    
    44   22   23 1    
    45   22   24 1    
    46   22   90 1    
    47   23   91 1    
    48   23   92 1    
    49   23   93 1    
    50   24   25 am   BACKBONE|DICT|INTERRES
    51   24   94 1    
    52   25   26 2    
    53   25   27 1    
    54   27   28 1    
    55   27   29 1    
    56   27   95 1    
    57   28   96 1    
    58   28   97 1    
    59   28   98 1    
    60   29   30 am   BACKBONE|DICT|INTERRES
    61   29   99 1    
    62   30   31 2    
    63   30   32 1    
    64   32   33 1    
    65   32   34 1    
    66   32  100 1    
    67   33  101 1    
    68   33  102 1    
    69   33  103 1    
    70   34   35 am   BACKBONE|DICT|INTERRES
    71   34  104 1    
    72   35   36 2    
    73   37   38 2    
    74   37   39 am   BACKBONE|DICT|INTERRES
    75   39   40 1    
    76   39  105 1    
    77   40   41 1    
    78   40   42 1    
    79   40  106 1    
    80   41  107 1    
    81   41  108 1    
    82   41  109 1    
    83   42   43 2    
    84   42   44 am   BACKBONE|DICT|INTERRES
    85   44   45 1    
    86   44  110 1    
    87   45   46 1    
    88   45   47 1    
    89   45  111 1    
    90   46  112 1    
    91   46  113 1    
    92   46  114 1    
    93   47   48 2    
    94   47   49 am   BACKBONE|DICT|INTERRES
    95   49   50 1    
    96   49  115 1    
    97   50   51 1    
    98   50   52 1    
    99   50  116 1    
   100   51  117 1    
   101   51  118 1    
   102   51  119 1    
   103   52   53 2    
   104   52   54 am   BACKBONE|DICT|INTERRES
   105   54   55 1    
   106   54  120 1    
   107   55   56 1    
   108   55   57 1    
   109   55  121 1    
   110   56  122 1    
   111   56  123 1    
   112   56  124 1    
   113   57   58 2    
   114   57   59 am   BACKBONE|DICT|INTERRES
   115   59   60 1    
   116   59  125 1    
   117   60   61 1    
   118   60   62 1    
   119   60  126 1    
   120   61  127 1    
   121   61  128 1    
   122   61  129 1    
   123   62   63 2    
   124   62   64 am   BACKBONE|DICT|INTERRES
   125   64   65 1    
   126   64  130 1    
   127   65   66 1    
   128   65   69 1    
   129   65  131 1    
   130   66   67 am   BACKBONE|DICT|INTERRES
   131   66   68 2    
   132   67  132 1    
   133   67  133 1    
   134   69   70 1    
   135   69  134 1    
   136   69  135 1    
   137   70   71 1    
   138   71  136 1    
   139   71  137 1    
@<TRIPOS>SUBSTRUCTURE
     1 UNK         1 GROUP             0       ****    0 ROOT    
