@<TRIPOS>MOLECULE
3R136
137   139    1
SMALL
USER_CHARGES


@<TRIPOS>ATOM
      1 CA         27.0906   21.2652    2.2216 C.3       0 UNK        -0.1979 
      2 C          27.8961   21.1429    0.9367 C.2       0 UNK         0.4864 
      3 O          27.5373   20.3563    0.0599 O.2       0 UNK        -0.5359 
      4 N          28.9785   21.9229    0.8162 N.am      1 UNK        -0.4318 
      5 CA         29.8511   21.9805   -0.3653 C.3       1 UNK         0.0824 
      6 C6         31.2235   22.6058   -0.0113 C.3       12 UNK        -0.0944 
      7 S7         32.3372   21.4472    0.8579 S.3       12 UNK        -0.2672 
      8 C8         31.7470   21.4506    2.5881 C.3       12 UNK         0.0333 
      9 C9         31.5819   22.8385    3.1996 C.ar      12 UNK        -0.0807 
     10 C10        32.5709   23.8166    3.0488 C.ar      12 UNK        -0.0894 
     11 C11        32.4104   25.0862    3.6111 C.ar      12 UNK        -0.0804 
     12 C12        31.2549   25.3716    4.3447 C.ar      12 UNK        -0.0824 
     13 C13        30.2662   24.3971    4.5200 C.ar      12 UNK        -0.0762 
     14 C14        30.4380   23.1333    3.9484 C.ar      12 UNK        -0.0782 
     15 C15        29.0213   24.6970    5.3461 C.3       12 UNK         0.0230 
     16 S16        27.5233   24.8572    4.3192 S.3       12 UNK        -0.2608 
     17 C17        27.8789   26.3874    3.3964 C.3       12 UNK        -0.0989 
     18 CA         27.4356   26.2845    1.9134 C.3       5 UNK         0.0716 
     19 N          25.9764   26.2466    1.7269 N.am      5 UNK        -0.4135 
     20 C          25.0599   27.1533    2.1002 C.2       4 UNK         0.5031 
     21 O          25.3447   28.2159    2.6566 O.2       4 UNK        -0.5229 
     22 CA         23.5862   26.8346    1.7652 C.3       4 UNK         0.0329 
     23 CB         22.6780   28.0828    1.8028 C.3       4 UNK        -0.2001 
     24 N          23.4275   26.1074    0.4987 N.am      4 UNK        -0.4303 
     25 C          23.8012   26.5207   -0.7214 C.2       3 UNK         0.5044 
     26 O          24.2656   27.6343   -0.9734 O.2       3 UNK        -0.5152 
     27 CA         23.6987   25.4739   -1.8448 C.3       3 UNK         0.0319 
     28 CB         22.8786   26.0082   -3.0311 C.3       3 UNK        -0.2001 
     29 N          25.0274   25.0690   -2.3137 N.am      3 UNK        -0.4354 
     30 C          25.9800   24.5210   -1.5468 C.2       2 UNK         0.4964 
     31 O          25.8255   24.2358   -0.3532 O.2       2 UNK        -0.5047 
     32 CA         27.3364   24.2662   -2.2160 C.3       2 UNK         0.0288 
     33 CB         28.0286   25.5822   -2.6214 C.3       2 UNK        -0.2113 
     34 N          28.1656   23.5367   -1.2646 N.am      2 UNK        -0.4145 
     35 C          29.1946   22.7314   -1.5476 C.2       1 UNK         0.5006 
     36 O          29.6284   22.5589   -2.6883 O.2       1 UNK        -0.5103 
     37 C          28.1578   27.3504    1.0646 C.2       5 UNK         0.5055 
     38 O          29.2579   27.0702    0.5886 O.2       5 UNK        -0.5220 
     39 N          27.5609   28.5425    0.9163 N.am      6 UNK        -0.4450 
     40 CA         28.1344   29.7526    0.3127 C.3       6 UNK         0.0367 
     41 CB         28.3689   29.5620   -1.2011 C.3       6 UNK        -0.1929 
     42 C          29.3940   30.2209    1.0710 C.2       6 UNK         0.5070 
     43 O          30.3902   30.6069    0.4563 O.2       6 UNK        -0.5237 
     44 N          29.3272   30.1567    2.4089 N.am      7 UNK        -0.4739 
     45 CA         30.4197   30.4229    3.3481 C.3       7 UNK         0.0276 
     46 CB         30.0956   29.7300    4.6860 C.3       7 UNK        -0.1927 
     47 C          30.7204   31.9264    3.5137 C.2       7 UNK         0.5013 
     48 O          30.6602   32.4568    4.6253 O.2       7 UNK        -0.5193 
     49 N          31.0291   32.5966    2.3978 N.am      8 UNK        -0.4253 
     50 CA         31.4834   33.9842    2.3395 C.3       8 UNK         0.0242 
     51 CB         31.2833   34.5185    0.9100 C.3       8 UNK        -0.2000 
     52 C          32.9533   34.0478    2.7799 C.2       8 UNK         0.4948 
     53 O          33.8455   33.8356    1.9560 O.2       8 UNK        -0.5275 
     54 N          33.1724   34.2468    4.0873 N.am      9 UNK        -0.4246 
     55 CA         34.4473   34.2264    4.8240 C.3       9 UNK         0.0261 
     56 CB         35.4355   35.2863    4.2985 C.3       9 UNK        -0.1959 
     57 C          35.1067   32.8358    4.9040 C.2       9 UNK         0.5033 
     58 O          35.5724   32.4537    5.9798 O.2       9 UNK        -0.5390 
     59 N          35.1157   32.0939    3.7889 N.am      10 UNK        -0.4215 
     60 CA         35.5506   30.7007    3.6853 C.3       10 UNK         0.0240 
     61 CB         35.4160   30.2335    2.2268 C.3       10 UNK        -0.1982 
     62 C          34.7344   29.7956    4.6214 C.2       10 UNK         0.4970 
     63 O          33.5050   29.8105    4.5510 O.2       10 UNK        -0.4916 
     64 N          35.4389   29.0538    5.4827 N.am      11 UNK        -0.4279 
     65 CA         34.8857   28.2091    6.5569 C.3       11 UNK         0.1003 
     66 C          34.2376   29.0024    7.7344 C.2       11 UNK         0.5709 
     67 N          34.3944   30.3188    7.8265 N.am      11 UNK        -0.7358 
     68 O          33.6089   28.4093    8.6081 O.2       11 UNK        -0.4999 
     69 C69        33.9713   27.0549    6.0472 C.3       12 UNK        -0.0954 
     70 S70        34.7461   26.0543    4.7303 S.3       12 UNK        -0.2268 
     71 C71        33.4891   26.1424    3.4171 C.3       12 UNK         0.0203 
     72 H72        26.0536   21.5079    1.9904 H         1 UNK         0.0888 
     73 H73        27.1076   20.3224    2.7676 H         1 UNK         0.0888 
     74 H74        27.4786   22.0452    2.8759 H         1 UNK         0.0888 
     75 H75        29.2321   22.5442    1.5705 H         1 UNK         0.3017 
     76 H76        30.0183   20.9589   -0.7143 H         1 UNK         0.0873 
     77 H77        31.7577   22.8974   -0.9181 H         1 UNK         0.0745 
     78 H78        31.1036   23.5269    0.5615 H         1 UNK         0.0745 
     79 H79        30.8114   20.8920    2.6344 H         1 UNK         0.0705 
     80 H80        32.4601   20.8908    3.1945 H         1 UNK         0.0705 
     81 H81        33.4668   23.5912    2.4864 H         1 UNK         0.1334 
     82 H82        31.1294   26.3508    4.7848 H         1 UNK         0.1417 
     83 H83        29.6779   22.3784    4.0971 H         1 UNK         0.1562 
     84 H84        29.1532   25.6076    5.9329 H         1 UNK         0.0748 
     85 H85        28.8679   23.8924    6.0667 H         1 UNK         0.0748 
     86 H86        28.9492   26.5871    3.4549 H         1 UNK         0.0940 
     87 H87        27.4002   27.2259    3.9036 H         1 UNK         0.0940 
     88 H88        27.7924   25.3269    1.5300 H         1 UNK         0.0703 
     89 H89        25.6524   25.4452    1.1934 H         1 UNK         0.3081 
     90 H90        23.2441   26.1577    2.5494 H         1 UNK         0.0719 
     91 H91        22.9991   28.8403    1.0871 H         1 UNK         0.0809 
     92 H92        21.6424   27.8272    1.5792 H         1 UNK         0.0809 
     93 H93        22.6897   28.5454    2.7906 H         1 UNK         0.0809 
     94 H94        23.0858   25.1597    0.5867 H         1 UNK         0.2990 
     95 H95        23.1956   24.5843   -1.4596 H         1 UNK         0.0690 
     96 H96        22.7514   25.2474   -3.8016 H         1 UNK         0.0788 
     97 H97        23.3508   26.8773   -3.4914 H         1 UNK         0.0788 
     98 H98        21.8815   26.3121   -2.7094 H         1 UNK         0.0788 
     99 H99        25.2486   25.2927   -3.2732 H         1 UNK         0.2993 
    100 H100       27.1707   23.6444   -3.0985 H         1 UNK         0.0949 
    101 H101       27.4459   26.1257   -3.3658 H         1 UNK         0.0767 
    102 H102       28.1642   26.2452   -1.7672 H         1 UNK         0.0767 
    103 H103       29.0107   25.3974   -3.0570 H         1 UNK         0.0767 
    104 H104       27.8099   23.5626   -0.3177 H         1 UNK         0.3013 
    105 H105       26.6684   28.6597    1.3916 H         1 UNK         0.3121 
    106 H106       27.3907   30.5414    0.4349 H         1 UNK         0.0774 
    107 H107       28.6678   30.5005   -1.6693 H         1 UNK         0.0815 
    108 H108       29.1562   28.8353   -1.4033 H         1 UNK         0.0815 
    109 H109       27.4624   29.2225   -1.7025 H         1 UNK         0.0815 
    110 H110       28.4518   29.8676    2.8206 H         1 UNK         0.2987 
    111 H111       31.3285   29.9640    2.9520 H         1 UNK         0.0949 
    112 H112       29.9724   28.6552    4.5571 H         1 UNK         0.0806 
    113 H113       30.9031   29.8741    5.4055 H         1 UNK         0.0806 
    114 H114       29.1838   30.1243    5.1359 H         1 UNK         0.0806 
    115 H115       31.0323   32.0695    1.5281 H         1 UNK         0.3010 
    116 H116       30.8810   34.5928    3.0177 H         1 UNK         0.0829 
    117 H117       30.2295   34.5148    0.6307 H         1 UNK         0.0813 
    118 H118       31.6383   35.5464    0.8254 H         1 UNK         0.0813 
    119 H119       31.8252   33.9240    0.1731 H         1 UNK         0.0813 
    120 H120       32.3511   34.3101    4.6761 H         1 UNK         0.3038 
    121 H121       34.1921   34.5035    5.8483 H         1 UNK         0.0769 
    122 H122       36.3254   35.3305    4.9278 H         1 UNK         0.0811 
    123 H123       34.9884   36.2803    4.2998 H         1 UNK         0.0811 
    124 H124       35.7705   35.0703    3.2836 H         1 UNK         0.0811 
    125 H125       34.7080   32.5175    2.9584 H         1 UNK         0.3204 
    126 H126       36.6044   30.6600    3.9683 H         1 UNK         0.0748 
    127 H127       36.0278   30.8387    1.5575 H         1 UNK         0.0771 
    128 H128       35.7407   29.1978    2.1172 H         1 UNK         0.0771 
    129 H129       34.3830   30.2902    1.8797 H         1 UNK         0.0771 
    130 H130       36.4459   29.1238    5.4701 H         1 UNK         0.2980 
    131 H131       35.7586   27.7362    7.0076 H         1 UNK         0.0545 
    132 H132       33.9788   30.8051    8.6044 H         1 UNK         0.3459 
    133 H133       34.9012   30.8423    7.1222 H         1 UNK         0.3459 
    134 H134       33.7267   26.3748    6.8647 H         1 UNK         0.0616 
    135 H135       33.0191   27.4571    5.7007 H         1 UNK         0.0616 
    136 H136       33.9817   25.9915    2.4554 H         1 UNK         0.0634 
    137 H137       33.0522   27.1417    3.3762 H         1 UNK         0.0634 
@<TRIPOS>BOND
     1    1    2 1    
     2    1   72 1    
     3    1   73 1    
     4    1   74 1    
     5    2    3 2    
     6    2    4 am   BACKBONE|DICT|INTERRES
     7    4    5 1    
     8    4   75 1    
     9    5    6 1    
    10    5   35 1    
    11    5   76 1    
    12    6    7 1    
    13    6   77 1    
    14    6   78 1    
    15    7    8 1    
    16    8    9 1    
    17    8   79 1    
    18    8   80 1    
    19    9   10 ar   
    20    9   14 ar   
    21   10   11 ar   
    22   10   81 1    
    23   11   12 ar   
    24   11   71 1    
    25   12   13 ar   
    26   12   82 1    
    27   13   14 ar   
    28   13   15 1    
    29   14   83 1    
    30   15   16 1    
    31   15   84 1    
    32   15   85 1    
    33   16   17 1    
    34   17   18 1    
    35   17   86 1    
    36   17   87 1    
    37   18   19 1    
    38   18   37 1    
    39   18   88 1    
    40   19   20 am   BACKBONE|DICT|INTERRES
    41   19   89 1    
    42   20   21 2    
    43   20   22 1    
    44   22   23 1    
    45   22   24 1    
    46   22   90 1    
    47   23   91 1    
    48   23   92 1    
    49   23   93 1    
    50   24   25 am   BACKBONE|DICT|INTERRES
    51   24   94 1    
    52   25   26 2    
    53   25   27 1    
    54   27   28 1    
    55   27   29 1    
    56   27   95 1    
    57   28   96 1    
    58   28   97 1    
    59   28   98 1    
    60   29   30 am   BACKBONE|DICT|INTERRES
    61   29   99 1    
    62   30   31 2    
    63   30   32 1    
    64   32   33 1    
    65   32   34 1    
    66   32  100 1    
    67   33  101 1    
    68   33  102 1    
    69   33  103 1    
    70   34   35 am   BACKBONE|DICT|INTERRES
    71   34  104 1    
    72   35   36 2    
    73   37   38 2    
    74   37   39 am   BACKBONE|DICT|INTERRES
    75   39   40 1    
    76   39  105 1    
    77   40   41 1    
    78   40   42 1    
    79   40  106 1    
    80   41  107 1    
    81   41  108 1    
    82   41  109 1    
    83   42   43 2    
    84   42   44 am   BACKBONE|DICT|INTERRES
    85   44   45 1    
    86   44  110 1    
    87   45   46 1    
    88   45   47 1    
    89   45  111 1    
    90   46  112 1    
    91   46  113 1    
    92   46  114 1    
    93   47   48 2    
    94   47   49 am   BACKBONE|DICT|INTERRES
    95   49   50 1    
    96   49  115 1    
    97   50   51 1    
    98   50   52 1    
    99   50  116 1    
   100   51  117 1    
   101   51  118 1    
   102   51  119 1    
   103   52   53 2    
   104   52   54 am   BACKBONE|DICT|INTERRES
   105   54   55 1    
   106   54  120 1    
   107   55   56 1    
   108   55   57 1    
   109   55  121 1    
   110   56  122 1    
   111   56  123 1    
   112   56  124 1    
   113   57   58 2    
   114   57   59 am   BACKBONE|DICT|INTERRES
   115   59   60 1    
   116   59  125 1    
   117   60   61 1    
   118   60   62 1    
   119   60  126 1    
   120   61  127 1    
   121   61  128 1    
   122   61  129 1    
   123   62   63 2    
   124   62   64 am   BACKBONE|DICT|INTERRES
   125   64   65 1    
   126   64  130 1    
   127   65   66 1    
   128   65   69 1    
   129   65  131 1    
   130   66   67 am   BACKBONE|DICT|INTERRES
   131   66   68 2    
   132   67  132 1    
   133   67  133 1    
   134   69   70 1    
   135   69  134 1    
   136   69  135 1    
   137   70   71 1    
   138   71  136 1    
   139   71  137 1    
@<TRIPOS>SUBSTRUCTURE
     1 UNK         1 GROUP             0       ****    0 ROOT    
