@<TRIPOS>MOLECULE
3R136
137   139    1
SMALL
USER_CHARGES


@<TRIPOS>ATOM
      1 CA         27.9788   18.4909   -0.0744 C.3       0 UNK        -0.1979 
      2 C          27.9440   19.7044   -0.9916 C.2       0 UNK         0.4864 
      3 O          26.9446   19.9247   -1.6780 O.2       0 UNK        -0.5359 
      4 N          29.0294   20.4880   -1.0148 N.am      1 UNK        -0.4318 
      5 CA         29.1439   21.7412   -1.7657 C.3       1 UNK         0.0824 
      6 C6         30.6256   22.1822   -1.9236 C.3       12 UNK        -0.0944 
      7 S7         31.5416   22.3488   -0.3483 S.3       12 UNK        -0.2672 
      8 C8         31.4096   24.1438   -0.0625 C.3       12 UNK         0.0333 
      9 C9         31.5045   24.4984    1.4141 C.ar      12 UNK        -0.0807 
     10 C10        32.5060   25.3607    1.8666 C.ar      12 UNK        -0.0894 
     11 C11        32.5761   25.7240    3.2139 C.ar      12 UNK        -0.0804 
     12 C12        31.6463   25.2003    4.1182 C.ar      12 UNK        -0.0824 
     13 C13        30.6472   24.3234    3.6817 C.ar      12 UNK        -0.0762 
     14 C14        30.5753   23.9865    2.3266 C.ar      12 UNK        -0.0782 
     15 C15        29.6699   23.7103    4.6787 C.3       12 UNK         0.0230 
     16 S16        27.9545   24.2782    4.4390 S.3       12 UNK        -0.2608 
     17 C17        28.1179   26.0736    4.7120 C.3       12 UNK        -0.0989 
     18 CA         27.9566   26.8508    3.3791 C.3       5 UNK         0.0716 
     19 N          26.6068   26.7475    2.8044 N.am      5 UNK        -0.4135 
     20 C          25.4745   27.2730    3.3015 C.2       4 UNK         0.5031 
     21 O          25.4097   27.9131    4.3514 O.2       4 UNK        -0.5229 
     22 CA         24.1860   27.0715    2.4820 C.3       4 UNK         0.0329 
     23 CB         23.8571   28.3474    1.6892 C.3       4 UNK        -0.2001 
     24 N          24.2589   25.9431    1.5524 N.am      4 UNK        -0.4303 
     25 C          24.1797   24.6503    1.8898 C.2       3 UNK         0.5044 
     26 O          23.9656   24.2563    3.0362 O.2       3 UNK        -0.5152 
     27 CA         24.4040   23.6196    0.7674 C.3       3 UNK         0.0319 
     28 CB         23.1178   23.3857   -0.0485 C.3       3 UNK        -0.2001 
     29 N          25.5553   23.9219   -0.0970 N.am      3 UNK        -0.4354 
     30 C          25.7343   24.9233   -0.9683 C.2       2 UNK         0.4964 
     31 O          24.8776   25.7739   -1.2098 O.2       2 UNK        -0.5047 
     32 CA         27.1108   25.0534   -1.6506 C.3       2 UNK         0.0288 
     33 CB         28.0128   26.0104   -0.8430 C.3       2 UNK        -0.2113 
     34 N          27.8228   23.8009   -1.9650 N.am      2 UNK        -0.4145 
     35 C          28.2813   22.8541   -1.1318 C.2       1 UNK         0.5006 
     36 O          28.0830   22.8569    0.0862 O.2       1 UNK        -0.5103 
     37 C          28.4105   28.3218    3.4745 C.2       5 UNK         0.5055 
     38 O          28.7508   28.8060    4.5545 O.2       5 UNK        -0.5220 
     39 N          28.3906   29.0036    2.3236 N.am      6 UNK        -0.4450 
     40 CA         28.8016   30.3971    2.1577 C.3       6 UNK         0.0367 
     41 CB         27.5548   31.3027    2.1577 C.3       6 UNK        -0.1929 
     42 C          29.6533   30.5418    0.8861 C.2       6 UNK         0.5070 
     43 O          29.5167   31.5271    0.1602 O.2       6 UNK        -0.5237 
     44 N          30.5076   29.5411    0.6220 N.am      7 UNK        -0.4739 
     45 CA         31.4094   29.4954   -0.5361 C.3       7 UNK         0.0276 
     46 CB         31.9789   28.0745   -0.6711 C.3       7 UNK        -0.1927 
     47 C          32.5518   30.5262   -0.4602 C.2       7 UNK         0.5013 
     48 O          33.0727   30.9343   -1.4990 O.2       7 UNK        -0.5193 
     49 N          32.9063   30.9304    0.7622 N.am      8 UNK        -0.4253 
     50 CA         33.8647   31.9734    1.0969 C.3       8 UNK         0.0242 
     51 CB         35.2780   31.3696    1.1883 C.3       8 UNK        -0.2000 
     52 C          33.4319   32.5757    2.4374 C.2       8 UNK         0.4948 
     53 O          32.6636   31.9457    3.1694 O.2       8 UNK        -0.5275 
     54 N          33.9627   33.7609    2.7655 N.am      9 UNK        -0.4246 
     55 CA         33.6785   34.4871    4.0120 C.3       9 UNK         0.0261 
     56 CB         34.3465   35.8709    3.9542 C.3       9 UNK        -0.1959 
     57 C          34.0962   33.7411    5.2956 C.2       9 UNK         0.5033 
     58 O          33.5449   34.0195    6.3612 O.2       9 UNK        -0.5390 
     59 N          35.0514   32.8100    5.1723 N.am      10 UNK        -0.4215 
     60 CA         35.5110   31.9299    6.2461 C.3       10 UNK         0.0240 
     61 CB         36.8963   31.3759    5.8720 C.3       10 UNK        -0.1982 
     62 C          34.5420   30.7732    6.5598 C.2       10 UNK         0.4970 
     63 O          34.6638   30.1852    7.6357 O.2       10 UNK        -0.4916 
     64 N          33.6327   30.4365    5.6334 N.am      11 UNK        -0.4279 
     65 CA         32.6710   29.3353    5.7902 C.3       11 UNK         0.1003 
     66 C          31.5410   29.6775    6.7986 C.2       11 UNK         0.5709 
     67 N          31.0536   28.6915    7.5405 N.am      11 UNK        -0.7358 
     68 O          31.0884   30.8165    6.9000 O.2       11 UNK        -0.4999 
     69 C69        32.0829   28.8713    4.4323 C.3       12 UNK        -0.0954 
     70 S70        33.3606   28.3898    3.2239 S.3       12 UNK        -0.2268 
     71 C71        33.6790   26.6587    3.6881 C.3       12 UNK         0.0203 
     72 H72        27.1773   18.5544    0.6611 H         1 UNK         0.0888 
     73 H73        27.8399   17.5783   -0.6533 H         1 UNK         0.0888 
     74 H74        28.9248   18.4123    0.4612 H         1 UNK         0.0888 
     75 H75        29.8083   20.2850   -0.4043 H         1 UNK         0.3017 
     76 H76        28.7487   21.5541   -2.7668 H         1 UNK         0.0873 
     77 H77        30.6976   23.1120   -2.4914 H         1 UNK         0.0745 
     78 H78        31.1530   21.4406   -2.5256 H         1 UNK         0.0745 
     79 H79        32.1864   24.6478   -0.6396 H         1 UNK         0.0705 
     80 H80        30.4604   24.5186   -0.4395 H         1 UNK         0.0705 
     81 H81        33.2327   25.7569    1.1709 H         1 UNK         0.1334 
     82 H82        31.7099   25.4652    5.1646 H         1 UNK         0.1417 
     83 H83        29.7999   23.3149    1.9832 H         1 UNK         0.1562 
     84 H84        29.9744   23.9248    5.7044 H         1 UNK         0.0748 
     85 H85        29.6952   22.6245    4.5767 H         1 UNK         0.0748 
     86 H86        29.0881   26.2764    5.1688 H         1 UNK         0.0940 
     87 H87        27.3740   26.3924    5.4437 H         1 UNK         0.0940 
     88 H88        28.6321   26.3920    2.6547 H         1 UNK         0.0703 
     89 H89        26.5324   26.2141    1.9522 H         1 UNK         0.3081 
     90 H90        23.3730   26.8857    3.1872 H         1 UNK         0.0719 
     91 H91        23.7708   29.2091    2.3529 H         1 UNK         0.0809 
     92 H92        24.6297   28.5779    0.9544 H         1 UNK         0.0809 
     93 H93        22.9087   28.2519    1.1602 H         1 UNK         0.0809 
     94 H94        24.4059   26.1540    0.5681 H         1 UNK         0.2990 
     95 H95        24.6534   22.6769    1.2573 H         1 UNK         0.0690 
     96 H96        23.2644   22.6144   -0.8047 H         1 UNK         0.0788 
     97 H97        22.7796   24.2908   -0.5536 H         1 UNK         0.0788 
     98 H98        22.3042   23.0550    0.5984 H         1 UNK         0.0788 
     99 H99        26.3789   23.3444    0.0714 H         1 UNK         0.2993 
    100 H100       26.9181   25.5264   -2.6152 H         1 UNK         0.0949 
    101 H101       28.2811   25.5964    0.1295 H         1 UNK         0.0767 
    102 H102       28.9346   26.2297   -1.3816 H         1 UNK         0.0767 
    103 H103       27.5130   26.9639   -0.6665 H         1 UNK         0.0767 
    104 H104       28.0105   23.6728   -2.9503 H         1 UNK         0.3013 
    105 H105       28.0938   28.5322    1.4806 H         1 UNK         0.3121 
    106 H106       29.4435   30.7007    2.9877 H         1 UNK         0.0774 
    107 H107       26.8934   31.0767    1.3205 H         1 UNK         0.0815 
    108 H108       26.9822   31.1857    3.0780 H         1 UNK         0.0815 
    109 H109       27.8333   32.3545    2.0826 H         1 UNK         0.0815 
    110 H110       30.5722   28.7753    1.2773 H         1 UNK         0.2987 
    111 H111       30.8245   29.7194   -1.4310 H         1 UNK         0.0949 
    112 H112       32.6024   27.8140    0.1840 H         1 UNK         0.0806 
    113 H113       31.1867   27.3304   -0.7525 H         1 UNK         0.0806 
    114 H114       32.5994   27.9868   -1.5639 H         1 UNK         0.0806 
    115 H115       32.3992   30.5750    1.5640 H         1 UNK         0.3010 
    116 H116       33.8366   32.7552    0.3347 H         1 UNK         0.0829 
    117 H117       35.3376   30.6003    1.9596 H         1 UNK         0.0813 
    118 H118       36.0205   32.1321    1.4255 H         1 UNK         0.0813 
    119 H119       35.5751   30.9150    0.2431 H         1 UNK         0.0813 
    120 H120       34.5910   34.2107    2.1143 H         1 UNK         0.3038 
    121 H121       32.5973   34.6321    4.0662 H         1 UNK         0.0769 
    122 H122       33.9845   36.4528    3.1064 H         1 UNK         0.0811 
    123 H123       35.4313   35.7930    3.8718 H         1 UNK         0.0811 
    124 H124       34.1293   36.4472    4.8549 H         1 UNK         0.0811 
    125 H125       35.4558   32.6646    4.2594 H         1 UNK         0.3204 
    126 H126       35.6159   32.5229    7.1573 H         1 UNK         0.0748 
    127 H127       36.8587   30.7726    4.9638 H         1 UNK         0.0771 
    128 H128       37.6163   32.1792    5.7137 H         1 UNK         0.0771 
    129 H129       37.2918   30.7422    6.6672 H         1 UNK         0.0771 
    130 H130       33.5263   30.9950    4.7947 H         1 UNK         0.2980 
    131 H131       33.2242   28.4900    6.2043 H         1 UNK         0.0545 
    132 H132       31.4144   27.7538    7.4690 H         1 UNK         0.3459 
    133 H133       30.3090   28.8933    8.1888 H         1 UNK         0.3459 
    134 H134       31.4842   29.6677    3.9886 H         1 UNK         0.0616 
    135 H135       31.4035   28.0306    4.5761 H         1 UNK         0.0616 
    136 H136       34.6255   26.3495    3.2425 H         1 UNK         0.0634 
    137 H137       33.8158   26.5867    4.7679 H         1 UNK         0.0634 
@<TRIPOS>BOND
     1    1    2 1    
     2    1   72 1    
     3    1   73 1    
     4    1   74 1    
     5    2    3 2    
     6    2    4 am   BACKBONE|DICT|INTERRES
     7    4    5 1    
     8    4   75 1    
     9    5    6 1    
    10    5   35 1    
    11    5   76 1    
    12    6    7 1    
    13    6   77 1    
    14    6   78 1    
    15    7    8 1    
    16    8    9 1    
    17    8   79 1    
    18    8   80 1    
    19    9   10 ar   
    20    9   14 ar   
    21   10   11 ar   
    22   10   81 1    
    23   11   12 ar   
    24   11   71 1    
    25   12   13 ar   
    26   12   82 1    
    27   13   14 ar   
    28   13   15 1    
    29   14   83 1    
    30   15   16 1    
    31   15   84 1    
    32   15   85 1    
    33   16   17 1    
    34   17   18 1    
    35   17   86 1    
    36   17   87 1    
    37   18   19 1    
    38   18   37 1    
    39   18   88 1    
    40   19   20 am   BACKBONE|DICT|INTERRES
    41   19   89 1    
    42   20   21 2    
    43   20   22 1    
    44   22   23 1    
    45   22   24 1    
    46   22   90 1    
    47   23   91 1    
    48   23   92 1    
    49   23   93 1    
    50   24   25 am   BACKBONE|DICT|INTERRES
    51   24   94 1    
    52   25   26 2    
    53   25   27 1    
    54   27   28 1    
    55   27   29 1    
    56   27   95 1    
    57   28   96 1    
    58   28   97 1    
    59   28   98 1    
    60   29   30 am   BACKBONE|DICT|INTERRES
    61   29   99 1    
    62   30   31 2    
    63   30   32 1    
    64   32   33 1    
    65   32   34 1    
    66   32  100 1    
    67   33  101 1    
    68   33  102 1    
    69   33  103 1    
    70   34   35 am   BACKBONE|DICT|INTERRES
    71   34  104 1    
    72   35   36 2    
    73   37   38 2    
    74   37   39 am   BACKBONE|DICT|INTERRES
    75   39   40 1    
    76   39  105 1    
    77   40   41 1    
    78   40   42 1    
    79   40  106 1    
    80   41  107 1    
    81   41  108 1    
    82   41  109 1    
    83   42   43 2    
    84   42   44 am   BACKBONE|DICT|INTERRES
    85   44   45 1    
    86   44  110 1    
    87   45   46 1    
    88   45   47 1    
    89   45  111 1    
    90   46  112 1    
    91   46  113 1    
    92   46  114 1    
    93   47   48 2    
    94   47   49 am   BACKBONE|DICT|INTERRES
    95   49   50 1    
    96   49  115 1    
    97   50   51 1    
    98   50   52 1    
    99   50  116 1    
   100   51  117 1    
   101   51  118 1    
   102   51  119 1    
   103   52   53 2    
   104   52   54 am   BACKBONE|DICT|INTERRES
   105   54   55 1    
   106   54  120 1    
   107   55   56 1    
   108   55   57 1    
   109   55  121 1    
   110   56  122 1    
   111   56  123 1    
   112   56  124 1    
   113   57   58 2    
   114   57   59 am   BACKBONE|DICT|INTERRES
   115   59   60 1    
   116   59  125 1    
   117   60   61 1    
   118   60   62 1    
   119   60  126 1    
   120   61  127 1    
   121   61  128 1    
   122   61  129 1    
   123   62   63 2    
   124   62   64 am   BACKBONE|DICT|INTERRES
   125   64   65 1    
   126   64  130 1    
   127   65   66 1    
   128   65   69 1    
   129   65  131 1    
   130   66   67 am   BACKBONE|DICT|INTERRES
   131   66   68 2    
   132   67  132 1    
   133   67  133 1    
   134   69   70 1    
   135   69  134 1    
   136   69  135 1    
   137   70   71 1    
   138   71  136 1    
   139   71  137 1    
@<TRIPOS>SUBSTRUCTURE
     1 UNK         1 GROUP             0       ****    0 ROOT    
