@<TRIPOS>MOLECULE
3R136
137   139    1
SMALL
USER_CHARGES


@<TRIPOS>ATOM
      1 CA         28.5162   22.6071    4.7511 C.3       0 UNK        -0.1979 
      2 C          28.1814   21.8253    3.4894 C.2       0 UNK         0.4864 
      3 O          27.3320   20.9329    3.5258 O.2       0 UNK        -0.5359 
      4 N          28.8434   22.1495    2.3715 N.am      1 UNK        -0.4318 
      5 CA         28.6843   21.4956    1.0681 C.3       1 UNK         0.0824 
      6 C6         29.9225   21.7174    0.1609 C.3       12 UNK        -0.0944 
      7 S7         31.4566   21.1014    0.9312 S.3       12 UNK        -0.2672 
      8 C8         32.7050   22.2307    0.2270 C.3       12 UNK         0.0333 
      9 C9         32.5272   23.6965    0.6204 C.ar      12 UNK        -0.0807 
     10 C10        32.2048   24.0664    1.9319 C.ar      12 UNK        -0.0894 
     11 C11        32.0905   25.4150    2.2835 C.ar      12 UNK        -0.0804 
     12 C12        32.3111   26.3987    1.3158 C.ar      12 UNK        -0.0824 
     13 C13        32.6370   26.0470    0.0042 C.ar      12 UNK        -0.0762 
     14 C14        32.7373   24.6948   -0.3375 C.ar      12 UNK        -0.0782 
     15 C15        32.9252   27.1220   -1.0349 C.3       12 UNK         0.0230 
     16 S16        31.4436   27.5802   -1.9891 S.3       12 UNK        -0.2608 
     17 C17        30.7118   28.8967   -0.9553 C.3       12 UNK        -0.0989 
     18 CA         29.1665   28.7778   -0.8500 C.3       5 UNK         0.0716 
     19 N          28.7307   27.4888   -0.2943 N.am      5 UNK        -0.4135 
     20 C          28.8435   27.0888    0.9812 C.2       4 UNK         0.5031 
     21 O          29.3976   27.7546    1.8582 O.2       4 UNK        -0.5229 
     22 CA         28.1555   25.7601    1.3490 C.3       4 UNK         0.0329 
     23 CB         27.7566   25.7101    2.8392 C.3       4 UNK        -0.2001 
     24 N          26.9845   25.4407    0.5180 N.am      4 UNK        -0.4303 
     25 C          25.8722   26.1792    0.3543 C.2       3 UNK         0.5044 
     26 O          25.7435   27.3284    0.7789 O.2       3 UNK        -0.5152 
     27 CA         24.7087   25.5415   -0.4298 C.3       3 UNK         0.0319 
     28 CB         24.6937   26.0577   -1.8775 C.3       3 UNK        -0.2001 
     29 N          24.7513   24.0766   -0.4413 N.am      3 UNK        -0.4354 
     30 C          24.5641   23.2924    0.6301 C.2       2 UNK         0.4964 
     31 O          24.2129   23.7091    1.7341 O.2       2 UNK        -0.5047 
     32 CA         24.8658   21.7930    0.4560 C.3       2 UNK         0.0288 
     33 CB         24.5857   21.2640   -0.9693 C.3       2 UNK        -0.2113 
     34 N          26.2353   21.4717    0.8793 N.am      2 UNK        -0.4145 
     35 C          27.3823   21.9624    0.3850 C.2       1 UNK         0.5006 
     36 O          27.4374   22.7807   -0.5366 O.2       1 UNK        -0.5103 
     37 C          28.5305   29.9840   -0.1114 C.2       5 UNK         0.5055 
     38 O          29.1583   31.0397   -0.0147 O.2       5 UNK        -0.5220 
     39 N          27.3272   29.7883    0.4594 N.am      6 UNK        -0.4450 
     40 CA         26.6037   30.6990    1.3582 C.3       6 UNK         0.0367 
     41 CB         26.1270   31.9497    0.5897 C.3       6 UNK        -0.1929 
     42 C          27.3806   31.0658    2.6439 C.2       6 UNK         0.5070 
     43 O          27.0464   32.0651    3.2819 O.2       6 UNK        -0.5237 
     44 N          28.4144   30.2774    2.9870 N.am      7 UNK        -0.4739 
     45 CA         29.4238   30.5224    4.0242 C.3       7 UNK         0.0276 
     46 CB         28.8083   30.3849    5.4318 C.3       7 UNK        -0.1927 
     47 C          30.1929   31.8484    3.8305 C.2       7 UNK         0.5013 
     48 O          30.6304   32.4495    4.8142 O.2       7 UNK        -0.5193 
     49 N          30.3389   32.2964    2.5725 N.am      8 UNK        -0.4253 
     50 CA         30.9867   33.5529    2.1901 C.3       8 UNK         0.0242 
     51 CB         30.6117   33.8906    0.7359 C.3       8 UNK        -0.2000 
     52 C          32.5098   33.4860    2.3953 C.2       8 UNK         0.4948 
     53 O          33.2418   33.1608    1.4588 O.2       8 UNK        -0.5275 
     54 N          32.9412   33.7656    3.6340 N.am      9 UNK        -0.4246 
     55 CA         34.3182   33.6933    4.1390 C.3       9 UNK         0.0261 
     56 CB         35.2108   34.7593    3.4671 C.3       9 UNK        -0.1959 
     57 C          34.9070   32.2701    4.0556 C.2       9 UNK         0.5033 
     58 O          36.0926   32.1091    3.7574 O.2       9 UNK        -0.5390 
     59 N          34.0664   31.2633    4.3222 N.am      10 UNK        -0.4215 
     60 CA         34.4093   29.8464    4.2896 C.3       10 UNK         0.0240 
     61 CB         34.1387   29.2814    2.8841 C.3       10 UNK        -0.1982 
     62 C          33.5728   29.1136    5.3403 C.2       10 UNK         0.4970 
     63 O          32.4062   29.4620    5.5326 O.2       10 UNK        -0.4916 
     64 N          34.1837   28.1061    5.9745 N.am      11 UNK        -0.4279 
     65 CA         33.5771   27.2014    6.9697 C.3       11 UNK         0.1003 
     66 C          33.1435   27.8791    8.3066 C.2       11 UNK         0.5709 
     67 N          33.6223   29.0757    8.6259 N.am      11 UNK        -0.7358 
     68 O          32.3916   27.2999    9.0875 O.2       11 UNK        -0.4999 
     69 C69        32.4677   26.2888    6.3691 C.3       12 UNK        -0.0954 
     70 S70        33.0331   25.3829    4.8877 S.3       12 UNK        -0.2268 
     71 C71        31.7235   25.8153    3.7044 C.3       12 UNK         0.0203 
     72 H72        27.6344   23.1374    5.1095 H         1 UNK         0.0888 
     73 H73        28.8468   21.9270    5.5357 H         1 UNK         0.0888 
     74 H74        29.3075   23.3368    4.5820 H         1 UNK         0.0888 
     75 H75        29.5389   22.8796    2.4004 H         1 UNK         0.3017 
     76 H76        28.5919   20.4195    1.2327 H         1 UNK         0.0873 
     77 H77        30.0368   22.7767   -0.0768 H         1 UNK         0.0745 
     78 H78        29.7957   21.2024   -0.7932 H         1 UNK         0.0745 
     79 H79        32.6904   22.1198   -0.8584 H         1 UNK         0.0705 
     80 H80        33.6920   21.9039    0.5562 H         1 UNK         0.0705 
     81 H81        32.0576   23.3061    2.6867 H         1 UNK         0.1334 
     82 H82        32.2230   27.4412    1.5843 H         1 UNK         0.1417 
     83 H83        32.9992   24.4218   -1.3509 H         1 UNK         0.1562 
     84 H84        33.6837   26.7596   -1.7305 H         1 UNK         0.0748 
     85 H85        33.3551   28.0074   -0.5636 H         1 UNK         0.0748 
     86 H86        30.9951   29.8507   -1.4041 H         1 UNK         0.0940 
     87 H87        31.1593   28.8886    0.0393 H         1 UNK         0.0940 
     88 H88        28.7638   28.8193   -1.8631 H         1 UNK         0.0703 
     89 H89        28.2599   26.8715   -0.9394 H         1 UNK         0.3081 
     90 H90        28.8918   24.9763    1.1664 H         1 UNK         0.0719 
     91 H91        27.2525   24.7760    3.0842 H         1 UNK         0.0809 
     92 H92        27.0827   26.5269    3.1007 H         1 UNK         0.0809 
     93 H93        28.6266   25.7947    3.4885 H         1 UNK         0.0809 
     94 H94        27.0102   24.5273    0.0700 H         1 UNK         0.2990 
     95 H95        23.7805   25.8500    0.0558 H         1 UNK         0.0690 
     96 H96        23.8309   25.6775   -2.4248 H         1 UNK         0.0788 
     97 H97        25.5927   25.7648   -2.4214 H         1 UNK         0.0788 
     98 H98        24.6365   27.1470   -1.9033 H         1 UNK         0.0788 
     99 H99        25.0773   23.6381   -1.2913 H         1 UNK         0.2993 
    100 H100       24.1971   21.2654    1.1383 H         1 UNK         0.0949 
    101 H101       25.2724   21.6685   -1.7133 H         1 UNK         0.0767 
    102 H102       24.6731   20.1779   -1.0031 H         1 UNK         0.0767 
    103 H103       23.5719   21.5127   -1.2866 H         1 UNK         0.0767 
    104 H104       26.3134   20.9078    1.7205 H         1 UNK         0.3013 
    105 H105       26.8988   28.8697    0.3727 H         1 UNK         0.3121 
    106 H106       25.7184   30.1535    1.6887 H         1 UNK         0.0774 
    107 H107       25.4615   32.5578    1.2036 H         1 UNK         0.0815 
    108 H108       26.9625   32.5841    0.2919 H         1 UNK         0.0815 
    109 H109       25.5748   31.6768   -0.3094 H         1 UNK         0.0815 
    110 H110       28.6004   29.4579    2.4140 H         1 UNK         0.2987 
    111 H111       30.1658   29.7298    3.9125 H         1 UNK         0.0949 
    112 H112       28.1010   31.1868    5.6447 H         1 UNK         0.0806 
    113 H113       28.2866   29.4347    5.5447 H         1 UNK         0.0806 
    114 H114       29.5831   30.4197    6.1990 H         1 UNK         0.0806 
    115 H115       29.9479   31.7479    1.8132 H         1 UNK         0.3010 
    116 H116       30.5916   34.3495    2.8245 H         1 UNK         0.0829 
    117 H117       29.5323   33.9893    0.6176 H         1 UNK         0.0813 
    118 H118       31.0617   34.8344    0.4256 H         1 UNK         0.0813 
    119 H119       30.9526   33.1222    0.0407 H         1 UNK         0.0813 
    120 H120       32.2279   33.9251    4.3365 H         1 UNK         0.3038 
    121 H121       34.2654   33.9338    5.2019 H         1 UNK         0.0769 
    122 H122       35.3637   34.5510    2.4077 H         1 UNK         0.0811 
    123 H123       34.7751   35.7545    3.5542 H         1 UNK         0.0811 
    124 H124       36.1953   34.7960    3.9351 H         1 UNK         0.0811 
    125 H125       33.1175   31.4665    4.6141 H         1 UNK         0.3204 
    126 H126       35.4664   29.7186    4.5334 H         1 UNK         0.0748 
    127 H127       34.3509   28.2120    2.8427 H         1 UNK         0.0771 
    128 H128       33.0978   29.4249    2.5911 H         1 UNK         0.0771 
    129 H129       34.7645   29.7671    2.1351 H         1 UNK         0.0771 
    130 H130       35.1466   27.9049    5.7477 H         1 UNK         0.2980 
    131 H131       34.3905   26.5397    7.2690 H         1 UNK         0.0545 
    132 H132       34.2484   29.5593    8.0030 H         1 UNK         0.3459 
    133 H133       33.3462   29.5007    9.4969 H         1 UNK         0.3459 
    134 H134       32.1488   25.5437    7.0998 H         1 UNK         0.0616 
    135 H135       31.5803   26.8782    6.1331 H         1 UNK         0.0616 
    136 H136       31.5237   26.8872    3.7583 H         1 UNK         0.0634 
    137 H137       30.8052   25.3096    3.9999 H         1 UNK         0.0634 
@<TRIPOS>BOND
     1    1    2 1    
     2    1   72 1    
     3    1   73 1    
     4    1   74 1    
     5    2    3 2    
     6    2    4 am   BACKBONE|DICT|INTERRES
     7    4    5 1    
     8    4   75 1    
     9    5    6 1    
    10    5   35 1    
    11    5   76 1    
    12    6    7 1    
    13    6   77 1    
    14    6   78 1    
    15    7    8 1    
    16    8    9 1    
    17    8   79 1    
    18    8   80 1    
    19    9   10 ar   
    20    9   14 ar   
    21   10   11 ar   
    22   10   81 1    
    23   11   12 ar   
    24   11   71 1    
    25   12   13 ar   
    26   12   82 1    
    27   13   14 ar   
    28   13   15 1    
    29   14   83 1    
    30   15   16 1    
    31   15   84 1    
    32   15   85 1    
    33   16   17 1    
    34   17   18 1    
    35   17   86 1    
    36   17   87 1    
    37   18   19 1    
    38   18   37 1    
    39   18   88 1    
    40   19   20 am   BACKBONE|DICT|INTERRES
    41   19   89 1    
    42   20   21 2    
    43   20   22 1    
    44   22   23 1    
    45   22   24 1    
    46   22   90 1    
    47   23   91 1    
    48   23   92 1    
    49   23   93 1    
    50   24   25 am   BACKBONE|DICT|INTERRES
    51   24   94 1    
    52   25   26 2    
    53   25   27 1    
    54   27   28 1    
    55   27   29 1    
    56   27   95 1    
    57   28   96 1    
    58   28   97 1    
    59   28   98 1    
    60   29   30 am   BACKBONE|DICT|INTERRES
    61   29   99 1    
    62   30   31 2    
    63   30   32 1    
    64   32   33 1    
    65   32   34 1    
    66   32  100 1    
    67   33  101 1    
    68   33  102 1    
    69   33  103 1    
    70   34   35 am   BACKBONE|DICT|INTERRES
    71   34  104 1    
    72   35   36 2    
    73   37   38 2    
    74   37   39 am   BACKBONE|DICT|INTERRES
    75   39   40 1    
    76   39  105 1    
    77   40   41 1    
    78   40   42 1    
    79   40  106 1    
    80   41  107 1    
    81   41  108 1    
    82   41  109 1    
    83   42   43 2    
    84   42   44 am   BACKBONE|DICT|INTERRES
    85   44   45 1    
    86   44  110 1    
    87   45   46 1    
    88   45   47 1    
    89   45  111 1    
    90   46  112 1    
    91   46  113 1    
    92   46  114 1    
    93   47   48 2    
    94   47   49 am   BACKBONE|DICT|INTERRES
    95   49   50 1    
    96   49  115 1    
    97   50   51 1    
    98   50   52 1    
    99   50  116 1    
   100   51  117 1    
   101   51  118 1    
   102   51  119 1    
   103   52   53 2    
   104   52   54 am   BACKBONE|DICT|INTERRES
   105   54   55 1    
   106   54  120 1    
   107   55   56 1    
   108   55   57 1    
   109   55  121 1    
   110   56  122 1    
   111   56  123 1    
   112   56  124 1    
   113   57   58 2    
   114   57   59 am   BACKBONE|DICT|INTERRES
   115   59   60 1    
   116   59  125 1    
   117   60   61 1    
   118   60   62 1    
   119   60  126 1    
   120   61  127 1    
   121   61  128 1    
   122   61  129 1    
   123   62   63 2    
   124   62   64 am   BACKBONE|DICT|INTERRES
   125   64   65 1    
   126   64  130 1    
   127   65   66 1    
   128   65   69 1    
   129   65  131 1    
   130   66   67 am   BACKBONE|DICT|INTERRES
   131   66   68 2    
   132   67  132 1    
   133   67  133 1    
   134   69   70 1    
   135   69  134 1    
   136   69  135 1    
   137   70   71 1    
   138   71  136 1    
   139   71  137 1    
@<TRIPOS>SUBSTRUCTURE
     1 UNK         1 GROUP             0       ****    0 ROOT    
