@<TRIPOS>MOLECULE
3R136
137   139    1
SMALL
USER_CHARGES


@<TRIPOS>ATOM
      1 CA         26.3307   22.3142    3.4260 C.3       0 UNK        -0.1979 
      2 C          27.0066   22.3175    2.0647 C.2       0 UNK         0.4864 
      3 O          27.0798   23.3621    1.4137 O.2       0 UNK        -0.5359 
      4 N          27.4755   21.1407    1.6256 N.am      1 UNK        -0.4318 
      5 CA         28.0716   20.8776    0.3077 C.3       1 UNK         0.0824 
      6 C6         29.4618   21.5519    0.1146 C.3       12 UNK        -0.0944 
      7 S7         30.6716   20.9349    1.3326 S.3       12 UNK        -0.2672 
      8 C8         32.0804   22.0707    1.0868 C.3       12 UNK         0.0333 
      9 C9         31.8558   23.4800    1.6323 C.ar      12 UNK        -0.0807 
     10 C10        32.3200   24.5833    0.9099 C.ar      12 UNK        -0.0894 
     11 C11        32.1418   25.8831    1.3951 C.ar      12 UNK        -0.0804 
     12 C12        31.4995   26.0792    2.6220 C.ar      12 UNK        -0.0824 
     13 C13        31.0372   24.9850    3.3611 C.ar      12 UNK        -0.0762 
     14 C14        31.2280   23.6914    2.8647 C.ar      12 UNK        -0.0782 
     15 C15        30.3430   25.1783    4.7031 C.3       12 UNK         0.0230 
     16 S16        28.5853   24.7015    4.6154 S.3       12 UNK        -0.2608 
     17 C17        27.6914   26.2912    4.6556 C.3       12 UNK        -0.0989 
     18 CA         28.0714   27.2751    3.5238 C.3       5 UNK         0.0716 
     19 N          27.9231   26.7029    2.1774 N.am      5 UNK        -0.4135 
     20 C          28.4594   27.2286    1.0649 C.2       4 UNK         0.5031 
     21 O          29.1227   28.2663    1.0621 O.2       4 UNK        -0.5229 
     22 CA         28.1754   26.5279   -0.2699 C.3       4 UNK         0.0329 
     23 CB         29.3780   25.6879   -0.7158 C.3       4 UNK        -0.2001 
     24 N          27.0006   25.6634   -0.2173 N.am      4 UNK        -0.4303 
     25 C          25.7441   26.0520   -0.4617 C.2       3 UNK         0.5044 
     26 O          25.4102   27.2278   -0.6200 O.2       3 UNK        -0.5152 
     27 CA         24.7065   24.9144   -0.5792 C.3       3 UNK         0.0319 
     28 CB         23.3790   25.3704   -1.2202 C.3       3 UNK        -0.2001 
     29 N          25.2526   23.7381   -1.2766 N.am      3 UNK        -0.4354 
     30 C          25.7768   23.6909   -2.5137 C.2       2 UNK         0.4964 
     31 O          25.7424   24.6325   -3.3076 O.2       2 UNK        -0.5047 
     32 CA         26.5064   22.3875   -2.9082 C.3       2 UNK         0.0288 
     33 CB         27.3166   22.5322   -4.2111 C.3       2 UNK        -0.2113 
     34 N          27.4084   21.9300   -1.8439 N.am      2 UNK        -0.4145 
     35 C          27.0348   21.1767   -0.8010 C.2       1 UNK         0.5006 
     36 O          25.8862   20.7441   -0.6726 O.2       1 UNK        -0.5103 
     37 C          27.3754   28.6425    3.7132 C.2       5 UNK         0.5055 
     38 O          27.5759   29.2735    4.7503 O.2       5 UNK        -0.5220 
     39 N          26.6454   29.1333    2.7011 N.am      6 UNK        -0.4450 
     40 CA         26.2388   30.5370    2.5837 C.3       6 UNK         0.0367 
     41 CB         25.3238   30.6937    1.3589 C.3       6 UNK        -0.1929 
     42 C          27.4383   31.5069    2.4900 C.2       6 UNK         0.5070 
     43 O          27.2968   32.6715    2.8622 O.2       6 UNK        -0.5237 
     44 N          28.5935   31.0099    2.0221 N.am      7 UNK        -0.4739 
     45 CA         29.8628   31.7332    1.9400 C.3       7 UNK         0.0276 
     46 CB         30.4845   31.4704    0.5557 C.3       7 UNK        -0.1927 
     47 C          30.8404   31.3424    3.0661 C.2       7 UNK         0.5013 
     48 O          32.0278   31.6466    2.9460 O.2       7 UNK        -0.5193 
     49 N          30.3678   30.6711    4.1300 N.am      8 UNK        -0.4253 
     50 CA         31.1868   30.2509    5.2763 C.3       8 UNK         0.0242 
     51 CB         30.3322   29.4378    6.2611 C.3       8 UNK        -0.2000 
     52 C          31.8665   31.4253    6.0054 C.2       8 UNK         0.4948 
     53 O          31.3856   32.5584    5.9410 O.2       8 UNK        -0.5275 
     54 N          32.9921   31.1220    6.6639 N.am      9 UNK        -0.4246 
     55 CA         33.9455   32.0250    7.3259 C.3       9 UNK         0.0261 
     56 CB         33.2778   33.0288    8.2875 C.3       9 UNK        -0.1959 
     57 C          34.8934   32.7147    6.3310 C.2       9 UNK         0.5033 
     58 O          36.0808   32.8368    6.6353 O.2       9 UNK        -0.5390 
     59 N          34.3902   33.0926    5.1465 N.am      10 UNK        -0.4215 
     60 CA         35.2161   33.3839    3.9723 C.3       10 UNK         0.0240 
     61 CB         34.4305   34.2293    2.9554 C.3       10 UNK        -0.1982 
     62 C          35.7182   32.0630    3.3651 C.2       10 UNK         0.4970 
     63 O          36.9280   31.8689    3.2434 O.2       10 UNK        -0.4916 
     64 N          34.7784   31.1588    3.0617 N.am      11 UNK        -0.4279 
     65 CA         35.0304   29.7418    2.7858 C.3       11 UNK         0.1003 
     66 C          35.3719   28.9809    4.0963 C.2       11 UNK         0.5709 
     67 N          36.3909   28.1334    4.0818 N.am      11 UNK        -0.7358 
     68 O          34.6988   29.1347    5.1156 O.2       11 UNK        -0.4999 
     69 C69        33.8158   29.1092    2.0591 C.3       12 UNK        -0.0954 
     70 S70        34.2640   27.6395    1.0842 S.3       12 UNK        -0.2268 
     71 C71        32.6162   27.0702    0.5691 C.3       12 UNK         0.0203 
     72 H72        27.0420   22.0386    4.2041 H         1 UNK         0.0888 
     73 H73        25.9349   23.3018    3.6615 H         1 UNK         0.0888 
     74 H74        25.5035   21.6051    3.4428 H         1 UNK         0.0888 
     75 H75        27.3610   20.3247    2.2097 H         1 UNK         0.3017 
     76 H76        28.2257   19.7984    0.2586 H         1 UNK         0.0873 
     77 H77        29.8673   21.3408   -0.8763 H         1 UNK         0.0745 
     78 H78        29.3871   22.6356    0.2064 H         1 UNK         0.0745 
     79 H79        32.9537   21.6486    1.5855 H         1 UNK         0.0705 
     80 H80        32.3193   22.1019    0.0226 H         1 UNK         0.0705 
     81 H81        32.8170   24.4326   -0.0387 H         1 UNK         0.1334 
     82 H82        31.3584   27.0841    2.9937 H         1 UNK         0.1417 
     83 H83        30.8746   22.8467    3.4402 H         1 UNK         0.1562 
     84 H84        30.4484   26.2014    5.0645 H         1 UNK         0.0748 
     85 H85        30.8347   24.5482    5.4455 H         1 UNK         0.0748 
     86 H86        26.6223   26.0738    4.6213 H         1 UNK         0.0940 
     87 H87        27.8735   26.7418    5.6337 H         1 UNK         0.0940 
     88 H88        29.1308   27.5028    3.6388 H         1 UNK         0.0703 
     89 H89        27.4249   25.8255    2.1078 H         1 UNK         0.3081 
     90 H90        28.0099   27.3040   -1.0204 H         1 UNK         0.0719 
     91 H91        29.6401   24.9424    0.0344 H         1 UNK         0.0809 
     92 H92        29.1789   25.1701   -1.6541 H         1 UNK         0.0809 
     93 H93        30.2512   26.3195   -0.8759 H         1 UNK         0.0809 
     94 H94        27.1532   24.6927    0.0467 H         1 UNK         0.2990 
     95 H95        24.4907   24.5936    0.4411 H         1 UNK         0.0690 
     96 H96        22.6642   24.5497   -1.2781 H         1 UNK         0.0788 
     97 H97        23.5276   25.7582   -2.2285 H         1 UNK         0.0788 
     98 H98        22.9145   26.1636   -0.6331 H         1 UNK         0.0788 
     99 H99        25.3394   22.9011   -0.7123 H         1 UNK         0.2993 
    100 H100       25.7355   21.6333   -3.0821 H         1 UNK         0.0949 
    101 H101       27.8021   21.5944   -4.4822 H         1 UNK         0.0767 
    102 H102       26.6714   22.8117   -5.0453 H         1 UNK         0.0767 
    103 H103       28.0888   23.2977   -4.1238 H         1 UNK         0.0767 
    104 H104       28.3541   22.2814   -1.8756 H         1 UNK         0.3013 
    105 H105       26.5148   28.5559    1.8828 H         1 UNK         0.3121 
    106 H106       25.6702   30.8003    3.4782 H         1 UNK         0.0774 
    107 H107       25.8364   30.4235    0.4346 H         1 UNK         0.0815 
    108 H108       24.9847   31.7254    1.2548 H         1 UNK         0.0815 
    109 H109       24.4347   30.0686    1.4441 H         1 UNK         0.0815 
    110 H110       28.6304   30.0366    1.7283 H         1 UNK         0.2987 
    111 H111       29.6899   32.8072    2.0340 H         1 UNK         0.0949 
    112 H112       30.7479   30.4198    0.4264 H         1 UNK         0.0806 
    113 H113       29.7991   31.7453   -0.2459 H         1 UNK         0.0806 
    114 H114       31.3950   32.0544    0.4143 H         1 UNK         0.0806 
    115 H115       29.3748   30.4846    4.1872 H         1 UNK         0.3010 
    116 H116       31.9714   29.5998    4.8862 H         1 UNK         0.0829 
    117 H117       29.9431   28.5330    5.7969 H         1 UNK         0.0813 
    118 H118       30.9156   29.1233    7.1274 H         1 UNK         0.0813 
    119 H119       29.4862   30.0179    6.6320 H         1 UNK         0.0813 
    120 H120       33.3313   30.1705    6.5722 H         1 UNK         0.3038 
    121 H121       34.5691   31.3695    7.9362 H         1 UNK         0.0769 
    122 H122       32.7171   33.7989    7.7574 H         1 UNK         0.0811 
    123 H123       34.0298   33.5414    8.8886 H         1 UNK         0.0811 
    124 H124       32.5972   32.5284    8.9761 H         1 UNK         0.0811 
    125 H125       33.3947   32.9761    4.9976 H         1 UNK         0.3204 
    126 H126       36.0867   33.9648    4.2850 H         1 UNK         0.0748 
    127 H127       35.0417   34.4470    2.0786 H         1 UNK         0.0771 
    128 H128       33.5286   33.7283    2.6057 H         1 UNK         0.0771 
    129 H129       34.1324   35.1851    3.3866 H         1 UNK         0.0771 
    130 H130       33.7960   31.4134    3.1485 H         1 UNK         0.2980 
    131 H131       35.8929   29.6956    2.1176 H         1 UNK         0.0545 
    132 H132       36.6151   27.6239    4.9216 H         1 UNK         0.3459 
    133 H133       36.9321   27.9857    3.2444 H         1 UNK         0.3459 
    134 H134       33.3886   29.8258    1.3554 H         1 UNK         0.0616 
    135 H135       33.0152   28.8620    2.7582 H         1 UNK         0.0616 
    136 H136       32.6646   26.7955   -0.4856 H         1 UNK         0.0634 
    137 H137       31.8930   27.8850    0.6326 H         1 UNK         0.0634 
@<TRIPOS>BOND
     1    1    2 1    
     2    1   72 1    
     3    1   73 1    
     4    1   74 1    
     5    2    3 2    
     6    2    4 am   BACKBONE|DICT|INTERRES
     7    4    5 1    
     8    4   75 1    
     9    5    6 1    
    10    5   35 1    
    11    5   76 1    
    12    6    7 1    
    13    6   77 1    
    14    6   78 1    
    15    7    8 1    
    16    8    9 1    
    17    8   79 1    
    18    8   80 1    
    19    9   10 ar   
    20    9   14 ar   
    21   10   11 ar   
    22   10   81 1    
    23   11   12 ar   
    24   11   71 1    
    25   12   13 ar   
    26   12   82 1    
    27   13   14 ar   
    28   13   15 1    
    29   14   83 1    
    30   15   16 1    
    31   15   84 1    
    32   15   85 1    
    33   16   17 1    
    34   17   18 1    
    35   17   86 1    
    36   17   87 1    
    37   18   19 1    
    38   18   37 1    
    39   18   88 1    
    40   19   20 am   BACKBONE|DICT|INTERRES
    41   19   89 1    
    42   20   21 2    
    43   20   22 1    
    44   22   23 1    
    45   22   24 1    
    46   22   90 1    
    47   23   91 1    
    48   23   92 1    
    49   23   93 1    
    50   24   25 am   BACKBONE|DICT|INTERRES
    51   24   94 1    
    52   25   26 2    
    53   25   27 1    
    54   27   28 1    
    55   27   29 1    
    56   27   95 1    
    57   28   96 1    
    58   28   97 1    
    59   28   98 1    
    60   29   30 am   BACKBONE|DICT|INTERRES
    61   29   99 1    
    62   30   31 2    
    63   30   32 1    
    64   32   33 1    
    65   32   34 1    
    66   32  100 1    
    67   33  101 1    
    68   33  102 1    
    69   33  103 1    
    70   34   35 am   BACKBONE|DICT|INTERRES
    71   34  104 1    
    72   35   36 2    
    73   37   38 2    
    74   37   39 am   BACKBONE|DICT|INTERRES
    75   39   40 1    
    76   39  105 1    
    77   40   41 1    
    78   40   42 1    
    79   40  106 1    
    80   41  107 1    
    81   41  108 1    
    82   41  109 1    
    83   42   43 2    
    84   42   44 am   BACKBONE|DICT|INTERRES
    85   44   45 1    
    86   44  110 1    
    87   45   46 1    
    88   45   47 1    
    89   45  111 1    
    90   46  112 1    
    91   46  113 1    
    92   46  114 1    
    93   47   48 2    
    94   47   49 am   BACKBONE|DICT|INTERRES
    95   49   50 1    
    96   49  115 1    
    97   50   51 1    
    98   50   52 1    
    99   50  116 1    
   100   51  117 1    
   101   51  118 1    
   102   51  119 1    
   103   52   53 2    
   104   52   54 am   BACKBONE|DICT|INTERRES
   105   54   55 1    
   106   54  120 1    
   107   55   56 1    
   108   55   57 1    
   109   55  121 1    
   110   56  122 1    
   111   56  123 1    
   112   56  124 1    
   113   57   58 2    
   114   57   59 am   BACKBONE|DICT|INTERRES
   115   59   60 1    
   116   59  125 1    
   117   60   61 1    
   118   60   62 1    
   119   60  126 1    
   120   61  127 1    
   121   61  128 1    
   122   61  129 1    
   123   62   63 2    
   124   62   64 am   BACKBONE|DICT|INTERRES
   125   64   65 1    
   126   64  130 1    
   127   65   66 1    
   128   65   69 1    
   129   65  131 1    
   130   66   67 am   BACKBONE|DICT|INTERRES
   131   66   68 2    
   132   67  132 1    
   133   67  133 1    
   134   69   70 1    
   135   69  134 1    
   136   69  135 1    
   137   70   71 1    
   138   71  136 1    
   139   71  137 1    
@<TRIPOS>SUBSTRUCTURE
     1 UNK         1 GROUP             0       ****    0 ROOT    
