@<TRIPOS>MOLECULE
3R136
137   139    1
SMALL
USER_CHARGES


@<TRIPOS>ATOM
      1 CA         27.7112   20.3378    5.0144 C.3       0 UNK        -0.1979 
      2 C          27.6327   21.0637    3.6802 C.2       0 UNK         0.4864 
      3 O          26.7884   21.9450    3.5134 O.2       0 UNK        -0.5359 
      4 N          28.5180   20.7138    2.7347 N.am      1 UNK        -0.4318 
      5 CA         28.5966   21.2779    1.3779 C.3       1 UNK         0.0824 
      6 C6         29.6236   20.5238    0.4951 C.3       12 UNK        -0.0944 
      7 S7         31.3191   20.4695    1.1839 S.3       12 UNK        -0.2672 
      8 C8         32.3236   21.1351   -0.1835 C.3       12 UNK         0.0333 
      9 C9         32.3201   22.6570   -0.2099 C.ar      12 UNK        -0.0807 
     10 C10        33.2847   23.3749    0.5022 C.ar      12 UNK        -0.0894 
     11 C11        33.2874   24.7726    0.4805 C.ar      12 UNK        -0.0804 
     12 C12        32.3127   25.4525   -0.2559 C.ar      12 UNK        -0.0824 
     13 C13        31.3459   24.7479   -0.9846 C.ar      12 UNK        -0.0762 
     14 C14        31.3655   23.3499   -0.9585 C.ar      12 UNK        -0.0782 
     15 C15        30.2437   25.4353   -1.7903 C.3       12 UNK         0.0230 
     16 S16        30.5648   27.1651   -2.2828 S.3       12 UNK        -0.2608 
     17 C17        29.9677   28.1091   -0.8388 C.3       12 UNK        -0.0989 
     18 CA         28.4687   28.4746   -0.9841 C.3       5 UNK         0.0716 
     19 N          27.6021   27.3310   -0.7065 N.am      5 UNK        -0.4135 
     20 C          26.4929   27.0123   -1.3854 C.2       4 UNK         0.5031 
     21 O          26.0761   27.6406   -2.3593 O.2       4 UNK        -0.5229 
     22 CA         25.7138   25.7722   -0.9073 C.3       4 UNK         0.0329 
     23 CB         26.0331   24.5599   -1.7974 C.3       4 UNK        -0.2001 
     24 N          25.9884   25.4351    0.4928 N.am      4 UNK        -0.4303 
     25 C          25.4854   26.1149    1.5354 C.2       3 UNK         0.5044 
     26 O          24.6699   27.0297    1.4185 O.2       3 UNK        -0.5152 
     27 CA         25.9803   25.7408    2.9454 C.3       3 UNK         0.0319 
     28 CB         24.9502   24.8490    3.6558 C.3       3 UNK        -0.2001 
     29 N          27.2880   25.0801    2.9710 N.am      3 UNK        -0.4354 
     30 C          28.4418   25.6401    2.5749 C.2       2 UNK         0.4964 
     31 O          28.5270   26.7856    2.1304 O.2       2 UNK        -0.5047 
     32 CA         29.7062   24.7661    2.6394 C.3       2 UNK         0.0288 
     33 CB         30.3644   24.9085    4.0202 C.3       2 UNK        -0.2113 
     34 N          29.4765   23.3423    2.3811 N.am      2 UNK        -0.4145 
     35 C          28.8132   22.8062    1.3450 C.2       1 UNK         0.5006 
     36 O          28.3266   23.4643    0.4240 O.2       1 UNK        -0.5103 
     37 C          28.0615   29.6381   -0.0663 C.2       5 UNK         0.5055 
     38 O          27.7250   30.7092   -0.5731 O.2       5 UNK        -0.5220 
     39 N          28.0666   29.3957    1.2550 N.am      6 UNK        -0.4450 
     40 CA         27.6240   30.2536    2.3662 C.3       6 UNK         0.0367 
     41 CB         26.1053   30.4986    2.2949 C.3       6 UNK        -0.1929 
     42 C          28.3781   31.5864    2.5485 C.2       6 UNK         0.5070 
     43 O          28.7654   31.9049    3.6722 O.2       6 UNK        -0.5237 
     44 N          28.5751   32.3416    1.4615 N.am      7 UNK        -0.4739 
     45 CA         29.0979   33.7137    1.4248 C.3       7 UNK         0.0276 
     46 CB         29.0486   34.2252   -0.0239 C.3       7 UNK        -0.1927 
     47 C          30.5090   33.9003    2.0096 C.2       7 UNK         0.5013 
     48 O          30.8325   35.0019    2.4552 O.2       7 UNK        -0.5193 
     49 N          31.3142   32.8299    2.0167 N.am      8 UNK        -0.4253 
     50 CA         32.6421   32.7925    2.6342 C.3       8 UNK         0.0242 
     51 CB         33.4401   31.6198    2.0405 C.3       8 UNK        -0.2000 
     52 C          32.6100   32.7155    4.1741 C.2       8 UNK         0.4948 
     53 O          33.6656   32.8671    4.7913 O.2       8 UNK        -0.5275 
     54 N          31.4325   32.4636    4.7712 N.am      9 UNK        -0.4246 
     55 CA         31.1256   32.3599    6.2058 C.3       9 UNK         0.0261 
     56 CB         31.4278   33.6739    6.9534 C.3       9 UNK        -0.1959 
     57 C          31.7738   31.1503    6.8992 C.2       9 UNK         0.5033 
     58 O          31.0583   30.3272    7.4705 O.2       9 UNK        -0.5390 
     59 N          33.1046   31.0418    6.8105 N.am      10 UNK        -0.4215 
     60 CA         33.8966   29.9103    7.3019 C.3       10 UNK         0.0240 
     61 CB         35.3788   30.3153    7.3470 C.3       10 UNK        -0.1982 
     62 C          33.7117   28.6376    6.4550 C.2       10 UNK         0.4970 
     63 O          33.9110   27.5371    6.9700 O.2       10 UNK        -0.4916 
     64 N          33.3314   28.8133    5.1849 N.am      11 UNK        -0.4279 
     65 CA         33.0300   27.7525    4.2194 C.3       11 UNK         0.1003 
     66 C          31.9251   28.2101    3.2256 C.2       11 UNK         0.5709 
     67 N          30.9120   28.9319    3.6908 N.am      11 UNK        -0.7358 
     68 O          31.9838   27.9461    2.0295 O.2       11 UNK        -0.4999 
     69 C69        34.3183   27.1822    3.5625 C.3       12 UNK        -0.0954 
     70 S70        34.1089   25.4467    3.0368 S.3       12 UNK        -0.2268 
     71 C71        34.3541   25.5506    1.2360 C.3       12 UNK         0.0203 
     72 H72        26.7690   19.8306    5.2200 H         1 UNK         0.0888 
     73 H73        28.5074   19.5936    5.0280 H         1 UNK         0.0888 
     74 H74        27.8977   21.0497    5.8179 H         1 UNK         0.0888 
     75 H75        29.1997   19.9956    2.9375 H         1 UNK         0.3017 
     76 H76        27.6136   21.1162    0.9300 H         1 UNK         0.0873 
     77 H77        29.2943   19.4913    0.3695 H         1 UNK         0.0745 
     78 H78        29.6360   20.9393   -0.5132 H         1 UNK         0.0745 
     79 H79        31.9733   20.7318   -1.1349 H         1 UNK         0.0705 
     80 H80        33.3471   20.7756   -0.0663 H         1 UNK         0.0705 
     81 H81        34.0330   22.8476    1.0782 H         1 UNK         0.1334 
     82 H82        32.3160   26.5329   -0.2530 H         1 UNK         0.1417 
     83 H83        30.6195   22.7991   -1.5143 H         1 UNK         0.1562 
     84 H84        29.3157   25.3754   -1.2250 H         1 UNK         0.0748 
     85 H85        30.0735   24.8698   -2.7076 H         1 UNK         0.0748 
     86 H86        30.5825   29.0092   -0.7729 H         1 UNK         0.0940 
     87 H87        30.1558   27.5499    0.0792 H         1 UNK         0.0940 
     88 H88        28.3052   28.8160   -2.0090 H         1 UNK         0.0703 
     89 H89        27.8333   26.7892    0.1161 H         1 UNK         0.3081 
     90 H90        24.6489   25.9929   -1.0083 H         1 UNK         0.0719 
     91 H91        25.4750   23.6777   -1.4835 H         1 UNK         0.0809 
     92 H92        25.7661   24.7597   -2.8360 H         1 UNK         0.0809 
     93 H93        27.0940   24.3097   -1.7789 H         1 UNK         0.0809 
     94 H94        26.6658   24.6976    0.6599 H         1 UNK         0.2990 
     95 H95        26.0736   26.6710    3.5100 H         1 UNK         0.0690 
     96 H96        23.9744   25.3351    3.6983 H         1 UNK         0.0788 
     97 H97        25.2499   24.6344    4.6817 H         1 UNK         0.0788 
     98 H98        24.8189   23.8971    3.1394 H         1 UNK         0.0788 
     99 H99        27.2966   24.1138    3.2780 H         1 UNK         0.2993 
    100 H100       30.3973   25.1369    1.8802 H         1 UNK         0.0949 
    101 H101       29.7802   24.4158    4.7985 H         1 UNK         0.0767 
    102 H102       31.3658   24.4781    4.0275 H         1 UNK         0.0767 
    103 H103       30.4553   25.9554    4.3073 H         1 UNK         0.0767 
    104 H104       29.8412   22.7010    3.0696 H         1 UNK         0.3013 
    105 H105       28.3434   28.4583    1.5485 H         1 UNK         0.3121 
    106 H106       27.8105   29.6707    3.2699 H         1 UNK         0.0774 
    107 H107       25.8237   31.0597    1.4033 H         1 UNK         0.0815 
    108 H108       25.7602   31.0676    3.1593 H         1 UNK         0.0815 
    109 H109       25.5539   29.5584    2.2856 H         1 UNK         0.0815 
    110 H110       28.2374   31.9552    0.5803 H         1 UNK         0.2987 
    111 H111       28.4252   34.3283    2.0268 H         1 UNK         0.0949 
    112 H112       29.6722   33.6217   -0.6848 H         1 UNK         0.0806 
    113 H113       28.0315   34.2089   -0.4161 H         1 UNK         0.0806 
    114 H114       29.4029   35.2551   -0.0895 H         1 UNK         0.0806 
    115 H115       30.9621   31.9698    1.6225 H         1 UNK         0.3010 
    116 H116       33.1656   33.7164    2.3783 H         1 UNK         0.0829 
    117 H117       34.4335   31.5509    2.4862 H         1 UNK         0.0813 
    118 H118       32.9408   30.6667    2.2035 H         1 UNK         0.0813 
    119 H119       33.5792   31.7419    0.9661 H         1 UNK         0.0813 
    120 H120       30.6217   32.3245    4.1733 H         1 UNK         0.3038 
    121 H121       30.0465   32.2040    6.2564 H         1 UNK         0.0769 
    122 H122       32.4908   33.9158    6.9535 H         1 UNK         0.0811 
    123 H123       31.1114   33.6089    7.9952 H         1 UNK         0.0811 
    124 H124       30.8952   34.5128    6.5052 H         1 UNK         0.0811 
    125 H125       33.5874   31.7568    6.2678 H         1 UNK         0.3204 
    126 H126       33.5707   29.6801    8.3185 H         1 UNK         0.0748 
    127 H127       35.5353   31.1726    8.0022 H         1 UNK         0.0771 
    128 H128       35.9956   29.5003    7.7286 H         1 UNK         0.0771 
    129 H129       35.7568   30.5760    6.3574 H         1 UNK         0.0771 
    130 H130       33.1818   29.7539    4.8522 H         1 UNK         0.2980 
    131 H131       32.5658   26.9431    4.7848 H         1 UNK         0.0545 
    132 H132       30.1919   29.2107    3.0485 H         1 UNK         0.3459 
    133 H133       30.8144   29.1190    4.6760 H         1 UNK         0.3459 
    134 H134       35.1373   27.1799    4.2831 H         1 UNK         0.0616 
    135 H135       34.6561   27.8167    2.7422 H         1 UNK         0.0616 
    136 H136       34.3552   26.5906    0.9082 H         1 UNK         0.0634 
    137 H137       35.3397   25.1534    0.9899 H         1 UNK         0.0634 
@<TRIPOS>BOND
     1    1    2 1    
     2    1   72 1    
     3    1   73 1    
     4    1   74 1    
     5    2    3 2    
     6    2    4 am   BACKBONE|DICT|INTERRES
     7    4    5 1    
     8    4   75 1    
     9    5    6 1    
    10    5   35 1    
    11    5   76 1    
    12    6    7 1    
    13    6   77 1    
    14    6   78 1    
    15    7    8 1    
    16    8    9 1    
    17    8   79 1    
    18    8   80 1    
    19    9   10 ar   
    20    9   14 ar   
    21   10   11 ar   
    22   10   81 1    
    23   11   12 ar   
    24   11   71 1    
    25   12   13 ar   
    26   12   82 1    
    27   13   14 ar   
    28   13   15 1    
    29   14   83 1    
    30   15   16 1    
    31   15   84 1    
    32   15   85 1    
    33   16   17 1    
    34   17   18 1    
    35   17   86 1    
    36   17   87 1    
    37   18   19 1    
    38   18   37 1    
    39   18   88 1    
    40   19   20 am   BACKBONE|DICT|INTERRES
    41   19   89 1    
    42   20   21 2    
    43   20   22 1    
    44   22   23 1    
    45   22   24 1    
    46   22   90 1    
    47   23   91 1    
    48   23   92 1    
    49   23   93 1    
    50   24   25 am   BACKBONE|DICT|INTERRES
    51   24   94 1    
    52   25   26 2    
    53   25   27 1    
    54   27   28 1    
    55   27   29 1    
    56   27   95 1    
    57   28   96 1    
    58   28   97 1    
    59   28   98 1    
    60   29   30 am   BACKBONE|DICT|INTERRES
    61   29   99 1    
    62   30   31 2    
    63   30   32 1    
    64   32   33 1    
    65   32   34 1    
    66   32  100 1    
    67   33  101 1    
    68   33  102 1    
    69   33  103 1    
    70   34   35 am   BACKBONE|DICT|INTERRES
    71   34  104 1    
    72   35   36 2    
    73   37   38 2    
    74   37   39 am   BACKBONE|DICT|INTERRES
    75   39   40 1    
    76   39  105 1    
    77   40   41 1    
    78   40   42 1    
    79   40  106 1    
    80   41  107 1    
    81   41  108 1    
    82   41  109 1    
    83   42   43 2    
    84   42   44 am   BACKBONE|DICT|INTERRES
    85   44   45 1    
    86   44  110 1    
    87   45   46 1    
    88   45   47 1    
    89   45  111 1    
    90   46  112 1    
    91   46  113 1    
    92   46  114 1    
    93   47   48 2    
    94   47   49 am   BACKBONE|DICT|INTERRES
    95   49   50 1    
    96   49  115 1    
    97   50   51 1    
    98   50   52 1    
    99   50  116 1    
   100   51  117 1    
   101   51  118 1    
   102   51  119 1    
   103   52   53 2    
   104   52   54 am   BACKBONE|DICT|INTERRES
   105   54   55 1    
   106   54  120 1    
   107   55   56 1    
   108   55   57 1    
   109   55  121 1    
   110   56  122 1    
   111   56  123 1    
   112   56  124 1    
   113   57   58 2    
   114   57   59 am   BACKBONE|DICT|INTERRES
   115   59   60 1    
   116   59  125 1    
   117   60   61 1    
   118   60   62 1    
   119   60  126 1    
   120   61  127 1    
   121   61  128 1    
   122   61  129 1    
   123   62   63 2    
   124   62   64 am   BACKBONE|DICT|INTERRES
   125   64   65 1    
   126   64  130 1    
   127   65   66 1    
   128   65   69 1    
   129   65  131 1    
   130   66   67 am   BACKBONE|DICT|INTERRES
   131   66   68 2    
   132   67  132 1    
   133   67  133 1    
   134   69   70 1    
   135   69  134 1    
   136   69  135 1    
   137   70   71 1    
   138   71  136 1    
   139   71  137 1    
@<TRIPOS>SUBSTRUCTURE
     1 UNK         1 GROUP             0       ****    0 ROOT    
