@<TRIPOS>MOLECULE
3R136
137   139    1
SMALL
USER_CHARGES


@<TRIPOS>ATOM
      1 CA         26.3159   22.3117   -0.1554 C.3       0 UNK        -0.1979 
      2 C          27.7340   22.7535    0.1707 C.2       0 UNK         0.4864 
      3 O          27.9396   23.9050    0.5637 O.2       0 UNK        -0.5359 
      4 N          28.7096   21.8481    0.0041 N.am      1 UNK        -0.4318 
      5 CA         30.1420   22.0241    0.2797 C.3       1 UNK         0.0824 
      6 C6         30.4188   22.3926    1.7599 C.3       12 UNK        -0.0944 
      7 S7         32.0761   21.9027    2.3393 S.3       12 UNK        -0.2672 
      8 C8         31.7538   21.4233    4.0722 C.3       12 UNK         0.0333 
      9 C9         30.9930   22.4985    4.8387 C.ar      12 UNK        -0.0807 
     10 C10        31.6569   23.6226    5.3399 C.ar      12 UNK        -0.0894 
     11 C11        30.9431   24.6394    5.9844 C.ar      12 UNK        -0.0804 
     12 C12        29.5589   24.5124    6.1439 C.ar      12 UNK        -0.0824 
     13 C13        28.8873   23.3877    5.6573 C.ar      12 UNK        -0.0762 
     14 C14        29.6120   22.3788    5.0206 C.ar      12 UNK        -0.0782 
     15 C15        27.3788   23.2563    5.8032 C.3       12 UNK         0.0230 
     16 S16        26.5069   23.8428    4.3136 S.3       12 UNK        -0.2608 
     17 C17        26.6043   25.6548    4.5166 C.3       12 UNK        -0.0989 
     18 CA         27.4627   26.3494    3.4198 C.3       5 UNK         0.0716 
     19 N          26.9453   26.1203    2.0617 N.am      5 UNK        -0.4135 
     20 C          25.7759   26.5531    1.5689 C.2       4 UNK         0.5031 
     21 O          24.9928   27.2818    2.1821 O.2       4 UNK        -0.5229 
     22 CA         25.4334   26.0749    0.1448 C.3       4 UNK         0.0329 
     23 CB         24.0313   26.5210   -0.3245 C.3       4 UNK        -0.2001 
     24 N          26.4581   26.4418   -0.8431 N.am      4 UNK        -0.4303 
     25 C          26.8394   27.6814   -1.1885 C.2       3 UNK         0.5044 
     26 O          26.3825   28.7049   -0.6804 O.2       3 UNK        -0.5152 
     27 CA         27.8828   27.7955   -2.3206 C.3       3 UNK         0.0319 
     28 CB         28.5386   29.1900   -2.3925 C.3       3 UNK        -0.2001 
     29 N          28.9051   26.7405   -2.3122 N.am      3 UNK        -0.4354 
     30 C          29.7881   26.4698   -1.3409 C.2       2 UNK         0.4964 
     31 O          29.8534   27.0645   -0.2619 O.2       2 UNK        -0.5047 
     32 CA         30.7549   25.3150   -1.6163 C.3       2 UNK         0.0288 
     33 CB         32.2270   25.7589   -1.5359 C.3       2 UNK        -0.2113 
     34 N          30.4547   24.2707   -0.6474 N.am      2 UNK        -0.4145 
     35 C          30.8016   22.9830   -0.7340 C.2       1 UNK         0.5006 
     36 O          31.5511   22.5294   -1.6010 O.2       1 UNK        -0.5103 
     37 C          27.7009   27.8472    3.7402 C.2       5 UNK         0.5055 
     38 O          27.6087   28.2437    4.9049 O.2       5 UNK        -0.5220 
     39 N          28.0005   28.6674    2.7217 N.am      6 UNK        -0.4450 
     40 CA         28.1654   30.1206    2.8360 C.3       6 UNK         0.0367 
     41 CB         27.9454   30.7642    1.4556 C.3       6 UNK        -0.1929 
     42 C          29.5225   30.5118    3.4468 C.2       6 UNK         0.5070 
     43 O          30.3462   31.1248    2.7689 O.2       6 UNK        -0.5237 
     44 N          29.7342   30.1623    4.7212 N.am      7 UNK        -0.4739 
     45 CA         30.9843   30.3100    5.4838 C.3       7 UNK         0.0276 
     46 CB         30.7430   29.8081    6.9160 C.3       7 UNK        -0.1927 
     47 C          31.5999   31.7221    5.5193 C.2       7 UNK         0.5013 
     48 O          32.7998   31.8492    5.7646 O.2       7 UNK        -0.5193 
     49 N          30.7819   32.7523    5.2700 N.am      8 UNK        -0.4253 
     50 CA         31.2052   34.1468    5.1434 C.3       8 UNK         0.0242 
     51 CB         29.9625   35.0507    5.2031 C.3       8 UNK        -0.2000 
     52 C          32.0195   34.4418    3.8674 C.2       8 UNK         0.4948 
     53 O          32.7340   35.4456    3.8511 O.2       8 UNK        -0.5275 
     54 N          31.8921   33.6039    2.8268 N.am      9 UNK        -0.4246 
     55 CA         32.5345   33.8083    1.5229 C.3       9 UNK         0.0261 
     56 CB         31.5280   34.4656    0.5619 C.3       9 UNK        -0.1959 
     57 C          33.1082   32.5247    0.9006 C.2       9 UNK         0.5033 
     58 O          34.0574   32.6229    0.1206 O.2       9 UNK        -0.5390 
     59 N          32.5327   31.3604    1.2177 N.am      10 UNK        -0.4215 
     60 CA         32.8696   30.0611    0.6475 C.3       10 UNK         0.0240 
     61 CB         31.9137   29.7624   -0.5252 C.3       10 UNK        -0.1982 
     62 C          32.8695   28.9983    1.7597 C.2       10 UNK         0.4970 
     63 O          33.5518   29.1940    2.7653 O.2       10 UNK        -0.4916 
     64 N          32.1608   27.8817    1.5411 N.am      11 UNK        -0.4279 
     65 CA         32.1823   26.6493    2.3493 C.3       11 UNK         0.1003 
     66 C          33.5265   25.8477    2.2892 C.2       11 UNK         0.5709 
     67 N          34.5068   26.2406    1.4828 N.am      11 UNK        -0.7358 
     68 O          33.6742   24.8177    2.9373 O.2       11 UNK        -0.4999 
     69 C69        31.5205   26.8371    3.7577 C.3       12 UNK        -0.0954 
     70 S70        32.6157   26.7924    5.2294 S.3       12 UNK        -0.2268 
     71 C71        31.6478   25.8924    6.4942 C.3       12 UNK         0.0203 
     72 H72        25.9358   22.8672   -1.0121 H         1 UNK         0.0888 
     73 H73        26.2642   21.2488   -0.3902 H         1 UNK         0.0888 
     74 H74        25.6621   22.5001    0.6958 H         1 UNK         0.0888 
     75 H75        28.4627   20.9366   -0.3565 H         1 UNK         0.3017 
     76 H76        30.5791   21.0399    0.1013 H         1 UNK         0.0873 
     77 H77        30.2662   23.4542    1.9626 H         1 UNK         0.0745 
     78 H78        29.6899   21.8674    2.3756 H         1 UNK         0.0745 
     79 H79        32.7056   21.2247    4.5669 H         1 UNK         0.0705 
     80 H80        31.2018   20.4821    4.0840 H         1 UNK         0.0705 
     81 H81        32.7238   23.7249    5.1946 H         1 UNK         0.1334 
     82 H82        29.0014   25.2961    6.6378 H         1 UNK         0.1417 
     83 H83        29.0909   21.5117    4.6382 H         1 UNK         0.1562 
     84 H84        27.0245   23.7959    6.6829 H         1 UNK         0.0748 
     85 H85        27.1182   22.2099    5.9696 H         1 UNK         0.0748 
     86 H86        26.9957   25.8705    5.5111 H         1 UNK         0.0940 
     87 H87        25.5885   26.0532    4.5158 H         1 UNK         0.0940 
     88 H88        28.4502   25.8877    3.4387 H         1 UNK         0.0703 
     89 H89        27.4767   25.4642    1.4922 H         1 UNK         0.3081 
     90 H90        25.4193   24.9869    0.1894 H         1 UNK         0.0719 
     91 H91        23.9419   27.6069   -0.3694 H         1 UNK         0.0809 
     92 H92        23.7987   26.1241   -1.3125 H         1 UNK         0.0809 
     93 H93        23.2605   26.1616    0.3584 H         1 UNK         0.0809 
     94 H94        26.9290   25.6677   -1.2894 H         1 UNK         0.2990 
     95 H95        27.3225   27.6577   -3.2465 H         1 UNK         0.0690 
     96 H96        29.2709   29.2475   -3.1976 H         1 UNK         0.0788 
     97 H97        29.0410   29.4421   -1.4614 H         1 UNK         0.0788 
     98 H98        27.7932   29.9646   -2.5765 H         1 UNK         0.0788 
     99 H99        28.9348   26.1722   -3.1479 H         1 UNK         0.2993 
    100 H100       30.5674   24.9211   -2.6176 H         1 UNK         0.0949 
    101 H101       32.4931   26.0970   -0.5381 H         1 UNK         0.0767 
    102 H102       32.9033   24.9457   -1.7991 H         1 UNK         0.0767 
    103 H103       32.4256   26.5788   -2.2270 H         1 UNK         0.0767 
    104 H104       29.7450   24.5106    0.0399 H         1 UNK         0.3013 
    105 H105       28.0798   28.2738    1.7939 H         1 UNK         0.3121 
    106 H106       27.3913   30.5080    3.5019 H         1 UNK         0.0774 
    107 H107       28.0802   31.8459    1.4982 H         1 UNK         0.0815 
    108 H108       28.6433   30.3768    0.7138 H         1 UNK         0.0815 
    109 H109       26.9335   30.5834    1.0942 H         1 UNK         0.0815 
    110 H110       28.9953   29.6238    5.1653 H         1 UNK         0.2987 
    111 H111       31.7258   29.6650    5.0094 H         1 UNK         0.0949 
    112 H112       30.3349   28.7988    6.9201 H         1 UNK         0.0806 
    113 H113       31.6739   29.7849    7.4844 H         1 UNK         0.0806 
    114 H114       30.0450   30.4504    7.4544 H         1 UNK         0.0806 
    115 H115       29.8111   32.5476    5.0839 H         1 UNK         0.3010 
    116 H116       31.8428   34.3852    5.9976 H         1 UNK         0.0829 
    117 H117       29.4153   34.9138    6.1360 H         1 UNK         0.0813 
    118 H118       30.2426   36.1036    5.1462 H         1 UNK         0.0813 
    119 H119       29.2779   34.8514    4.3775 H         1 UNK         0.0813 
    120 H120       31.2884   32.7925    2.9241 H         1 UNK         0.3038 
    121 H121       33.3837   34.4855    1.6367 H         1 UNK         0.0769 
    122 H122       31.9734   34.6317   -0.4200 H         1 UNK         0.0811 
    123 H123       31.1988   35.4353    0.9357 H         1 UNK         0.0811 
    124 H124       30.6439   33.8426    0.4198 H         1 UNK         0.0811 
    125 H125       31.7498   31.3388    1.8735 H         1 UNK         0.3204 
    126 H126       33.8893   30.0845    0.2577 H         1 UNK         0.0748 
    127 H127       32.1698   28.8299   -1.0284 H         1 UNK         0.0771 
    128 H128       30.8823   29.6921   -0.1814 H         1 UNK         0.0771 
    129 H129       31.9565   30.5494   -1.2784 H         1 UNK         0.0771 
    130 H130       31.5796   27.8275    0.7123 H         1 UNK         0.2980 
    131 H131       31.5021   25.9992    1.7974 H         1 UNK         0.0545 
    132 H132       35.3541   25.6968    1.4469 H         1 UNK         0.3459 
    133 H133       34.4206   27.0789    0.9343 H         1 UNK         0.3459 
    134 H134       30.7678   26.0598    3.8665 H         1 UNK         0.0616 
    135 H135       30.9503   27.7643    3.7925 H         1 UNK         0.0616 
    136 H136       32.3181   25.6114    7.3072 H         1 UNK         0.0634 
    137 H137       30.9242   26.5837    6.9250 H         1 UNK         0.0634 
@<TRIPOS>BOND
     1    1    2 1    
     2    1   72 1    
     3    1   73 1    
     4    1   74 1    
     5    2    3 2    
     6    2    4 am   BACKBONE|DICT|INTERRES
     7    4    5 1    
     8    4   75 1    
     9    5    6 1    
    10    5   35 1    
    11    5   76 1    
    12    6    7 1    
    13    6   77 1    
    14    6   78 1    
    15    7    8 1    
    16    8    9 1    
    17    8   79 1    
    18    8   80 1    
    19    9   10 ar   
    20    9   14 ar   
    21   10   11 ar   
    22   10   81 1    
    23   11   12 ar   
    24   11   71 1    
    25   12   13 ar   
    26   12   82 1    
    27   13   14 ar   
    28   13   15 1    
    29   14   83 1    
    30   15   16 1    
    31   15   84 1    
    32   15   85 1    
    33   16   17 1    
    34   17   18 1    
    35   17   86 1    
    36   17   87 1    
    37   18   19 1    
    38   18   37 1    
    39   18   88 1    
    40   19   20 am   BACKBONE|DICT|INTERRES
    41   19   89 1    
    42   20   21 2    
    43   20   22 1    
    44   22   23 1    
    45   22   24 1    
    46   22   90 1    
    47   23   91 1    
    48   23   92 1    
    49   23   93 1    
    50   24   25 am   BACKBONE|DICT|INTERRES
    51   24   94 1    
    52   25   26 2    
    53   25   27 1    
    54   27   28 1    
    55   27   29 1    
    56   27   95 1    
    57   28   96 1    
    58   28   97 1    
    59   28   98 1    
    60   29   30 am   BACKBONE|DICT|INTERRES
    61   29   99 1    
    62   30   31 2    
    63   30   32 1    
    64   32   33 1    
    65   32   34 1    
    66   32  100 1    
    67   33  101 1    
    68   33  102 1    
    69   33  103 1    
    70   34   35 am   BACKBONE|DICT|INTERRES
    71   34  104 1    
    72   35   36 2    
    73   37   38 2    
    74   37   39 am   BACKBONE|DICT|INTERRES
    75   39   40 1    
    76   39  105 1    
    77   40   41 1    
    78   40   42 1    
    79   40  106 1    
    80   41  107 1    
    81   41  108 1    
    82   41  109 1    
    83   42   43 2    
    84   42   44 am   BACKBONE|DICT|INTERRES
    85   44   45 1    
    86   44  110 1    
    87   45   46 1    
    88   45   47 1    
    89   45  111 1    
    90   46  112 1    
    91   46  113 1    
    92   46  114 1    
    93   47   48 2    
    94   47   49 am   BACKBONE|DICT|INTERRES
    95   49   50 1    
    96   49  115 1    
    97   50   51 1    
    98   50   52 1    
    99   50  116 1    
   100   51  117 1    
   101   51  118 1    
   102   51  119 1    
   103   52   53 2    
   104   52   54 am   BACKBONE|DICT|INTERRES
   105   54   55 1    
   106   54  120 1    
   107   55   56 1    
   108   55   57 1    
   109   55  121 1    
   110   56  122 1    
   111   56  123 1    
   112   56  124 1    
   113   57   58 2    
   114   57   59 am   BACKBONE|DICT|INTERRES
   115   59   60 1    
   116   59  125 1    
   117   60   61 1    
   118   60   62 1    
   119   60  126 1    
   120   61  127 1    
   121   61  128 1    
   122   61  129 1    
   123   62   63 2    
   124   62   64 am   BACKBONE|DICT|INTERRES
   125   64   65 1    
   126   64  130 1    
   127   65   66 1    
   128   65   69 1    
   129   65  131 1    
   130   66   67 am   BACKBONE|DICT|INTERRES
   131   66   68 2    
   132   67  132 1    
   133   67  133 1    
   134   69   70 1    
   135   69  134 1    
   136   69  135 1    
   137   70   71 1    
   138   71  136 1    
   139   71  137 1    
@<TRIPOS>SUBSTRUCTURE
     1 UNK         1 GROUP             0       ****    0 ROOT    
