@<TRIPOS>MOLECULE
3R136
137   139    1
SMALL
USER_CHARGES


@<TRIPOS>ATOM
      1 CA         27.1910   20.7550    1.9558 C.3       0 UNK        -0.1979 
      2 C          27.7432   21.3443    0.6595 C.2       0 UNK         0.4864 
      3 O          27.2831   20.9512   -0.4110 O.2       0 UNK        -0.5359 
      4 N          28.7127   22.2727    0.6749 N.am      1 UNK        -0.4318 
      5 CA         29.4026   22.8922    1.8199 C.3       1 UNK         0.0824 
      6 C6         30.2297   21.9024    2.6955 C.3       12 UNK        -0.0944 
      7 S7         31.4338   20.9301    1.7193 S.3       12 UNK        -0.2672 
      8 C8         32.9826   21.8726    1.9454 C.3       12 UNK         0.0333 
      9 C9         32.8012   23.3365    1.5740 C.ar      12 UNK        -0.0807 
     10 C10        32.7529   24.3131    2.5748 C.ar      12 UNK        -0.0894 
     11 C11        32.4477   25.6390    2.2564 C.ar      12 UNK        -0.0804 
     12 C12        32.2057   25.9817    0.9251 C.ar      12 UNK        -0.0824 
     13 C13        32.2754   25.0225   -0.0875 C.ar      12 UNK        -0.0762 
     14 C14        32.5946   23.7020    0.2395 C.ar      12 UNK        -0.0782 
     15 C15        31.9758   25.4115   -1.5276 C.3       12 UNK         0.0230 
     16 S16        30.3372   24.8289   -2.0770 S.3       12 UNK        -0.2608 
     17 C17        29.1895   25.7807   -1.0253 C.3       12 UNK        -0.0989 
     18 CA         28.8156   27.1701   -1.6255 C.3       5 UNK         0.0716 
     19 N          27.3803   27.2600   -1.9219 N.am      5 UNK        -0.4135 
     20 C          26.8374   28.1197   -2.7968 C.2       4 UNK         0.5031 
     21 O          27.4990   28.8666   -3.5186 O.2       4 UNK        -0.5229 
     22 CA         25.2988   28.1875   -2.8697 C.3       4 UNK         0.0329 
     23 CB         24.7828   27.3685   -4.0638 C.3       4 UNK        -0.2001 
     24 N          24.6105   27.7458   -1.6519 N.am      4 UNK        -0.4303 
     25 C          24.7342   28.3000   -0.4372 C.2       3 UNK         0.5044 
     26 O          25.4551   29.2688   -0.1990 O.2       3 UNK        -0.5152 
     27 CA         23.9707   27.6377    0.7251 C.3       3 UNK         0.0319 
     28 CB         22.8402   26.6855    0.2712 C.3       3 UNK        -0.2001 
     29 N          24.8733   26.9436    1.6534 N.am      3 UNK        -0.4354 
     30 C          25.7630   25.9875    1.3468 C.2       2 UNK         0.4964 
     31 O          25.9988   25.6063    0.1947 O.2       2 UNK        -0.5047 
     32 CA         26.4861   25.3233    2.5273 C.3       2 UNK         0.0288 
     33 CB         25.4944   24.5715    3.4398 C.3       2 UNK        -0.2113 
     34 N          27.4693   24.3911    1.9870 N.am      2 UNK        -0.4145 
     35 C          28.5015   23.8441    2.6389 C.2       1 UNK         0.5006 
     36 O          28.7458   24.0567    3.8276 O.2       1 UNK        -0.5103 
     37 C          29.3025   28.3208   -0.7101 C.2       5 UNK         0.5055 
     38 O          30.5133   28.5090   -0.6009 O.2       5 UNK        -0.5220 
     39 N          28.3702   29.0454   -0.0688 N.am      6 UNK        -0.4450 
     40 CA         28.5340   29.9476    1.0781 C.3       6 UNK         0.0367 
     41 CB         29.6719   30.9751    0.8889 C.3       6 UNK        -0.1929 
     42 C          28.6638   29.1610    2.3951 C.2       6 UNK         0.5070 
     43 O          28.8352   27.9397    2.3881 O.2       6 UNK        -0.5237 
     44 N          28.5196   29.8810    3.5130 N.am      7 UNK        -0.4739 
     45 CA         28.5941   29.3370    4.8703 C.3       7 UNK         0.0276 
     46 CB         27.9446   30.3433    5.8362 C.3       7 UNK        -0.1927 
     47 C          30.0398   29.0359    5.2998 C.2       7 UNK         0.5013 
     48 O          30.9853   29.5508    4.6976 O.2       7 UNK        -0.5193 
     49 N          30.1775   28.2408    6.3709 N.am      8 UNK        -0.4253 
     50 CA         31.4485   27.9203    7.0290 C.3       8 UNK         0.0242 
     51 CB         31.1830   26.9918    8.2244 C.3       8 UNK        -0.2000 
     52 C          32.2002   29.1832    7.4816 C.2       8 UNK         0.4948 
     53 O          31.5682   30.1367    7.9434 O.2       8 UNK        -0.5275 
     54 N          33.5265   29.1805    7.2943 N.am      9 UNK        -0.4246 
     55 CA         34.4737   30.2925    7.4702 C.3       9 UNK         0.0261 
     56 CB         34.4750   30.8379    8.9121 C.3       9 UNK        -0.1959 
     57 C          34.3042   31.4251    6.4390 C.2       9 UNK         0.5033 
     58 O          35.3107   31.9032    5.9142 O.2       9 UNK        -0.5390 
     59 N          33.0576   31.8068    6.1246 N.am      10 UNK        -0.4215 
     60 CA         32.7008   32.7856    5.0906 C.3       10 UNK         0.0240 
     61 CB         31.1874   33.0525    5.1256 C.3       10 UNK        -0.1982 
     62 C          33.1513   32.3682    3.6784 C.2       10 UNK         0.4970 
     63 O          33.5159   33.2362    2.8845 O.2       10 UNK        -0.4916 
     64 N          33.1613   31.0562    3.4091 N.am      11 UNK        -0.4279 
     65 CA         33.7678   30.4411    2.2205 C.3       11 UNK         0.1003 
     66 C          35.3189   30.5663    2.1109 C.2       11 UNK         0.5709 
     67 N          36.0398   31.0109    3.1350 N.am      11 UNK        -0.7358 
     68 O          35.8815   30.2664    1.0603 O.2       11 UNK        -0.4999 
     69 C69        33.2883   28.9790    2.0261 C.3       12 UNK        -0.0954 
     70 S70        33.7160   27.8460    3.3977 S.3       12 UNK        -0.2268 
     71 C71        32.3119   26.6847    3.3546 C.3       12 UNK         0.0203 
     72 H72        26.1818   20.3770    1.7939 H         1 UNK         0.0888 
     73 H73        27.8091   19.9180    2.2786 H         1 UNK         0.0888 
     74 H74        27.1332   21.4793    2.7648 H         1 UNK         0.0888 
     75 H75        29.0479   22.5944   -0.2225 H         1 UNK         0.3017 
     76 H76        30.1122   23.5757    1.3589 H         1 UNK         0.0873 
     77 H77        30.7730   22.4381    3.4755 H         1 UNK         0.0745 
     78 H78        29.5786   21.2090    3.2265 H         1 UNK         0.0745 
     79 H79        33.3152   21.7710    2.9797 H         1 UNK         0.0705 
     80 H80        33.7642   21.4321    1.3249 H         1 UNK         0.0705 
     81 H81        32.9055   24.0322    3.6079 H         1 UNK         0.1334 
     82 H82        31.9424   26.9978    0.6799 H         1 UNK         0.1417 
     83 H83        32.6194   22.9474   -0.5353 H         1 UNK         0.1562 
     84 H84        32.7377   24.9834   -2.1805 H         1 UNK         0.0748 
     85 H85        32.0372   26.4928   -1.6596 H         1 UNK         0.0748 
     86 H86        29.5911   25.8510   -0.0126 H         1 UNK         0.0940 
     87 H87        28.3026   25.1564   -0.9197 H         1 UNK         0.0940 
     88 H88        29.3488   27.3007   -2.5698 H         1 UNK         0.0703 
     89 H89        26.7657   26.6804   -1.3583 H         1 UNK         0.3081 
     90 H90        25.0319   29.2339   -3.0322 H         1 UNK         0.0719 
     91 H91        24.9947   26.3050   -3.9456 H         1 UNK         0.0809 
     92 H92        23.7065   27.4857   -4.1916 H         1 UNK         0.0809 
     93 H93        25.2536   27.6930   -4.9931 H         1 UNK         0.0809 
     94 H94        24.0216   26.9298   -1.7375 H         1 UNK         0.2990 
     95 H95        23.5095   28.4518    1.2865 H         1 UNK         0.0690 
     96 H96        22.2597   26.3388    1.1264 H         1 UNK         0.0788 
     97 H97        23.2202   25.8013   -0.2420 H         1 UNK         0.0788 
     98 H98        22.1434   27.1896   -0.4002 H         1 UNK         0.0788 
     99 H99        24.7796   27.2103    2.6235 H         1 UNK         0.2993 
    100 H100       27.0051   26.0978    3.0955 H         1 UNK         0.0949 
    101 H101       26.0041   24.0918    4.2755 H         1 UNK         0.0767 
    102 H102       24.7537   25.2474    3.8683 H         1 UNK         0.0767 
    103 H103       24.9541   23.7982    2.8921 H         1 UNK         0.0767 
    104 H104       27.3375   24.1965    1.0018 H         1 UNK         0.3013 
    105 H105       27.3973   28.8377   -0.2696 H         1 UNK         0.3121 
    106 H106       27.5966   30.5031    1.1366 H         1 UNK         0.0774 
    107 H107       29.6172   31.7635    1.6400 H         1 UNK         0.0815 
    108 H108       30.6565   30.5186    0.9841 H         1 UNK         0.0815 
    109 H109       29.6162   31.4552   -0.0878 H         1 UNK         0.0815 
    110 H110       28.4081   30.8811    3.4366 H         1 UNK         0.2987 
    111 H111       28.0282   28.4029    4.8996 H         1 UNK         0.0949 
    112 H112       28.4816   31.2926    5.8526 H         1 UNK         0.0806 
    113 H113       26.9099   30.5477    5.5604 H         1 UNK         0.0806 
    114 H114       27.9339   29.9616    6.8580 H         1 UNK         0.0806 
    115 H115       29.3444   27.8920    6.8210 H         1 UNK         0.3010 
    116 H116       32.0670   27.3885    6.3053 H         1 UNK         0.0829 
    117 H117       30.6990   26.0666    7.9104 H         1 UNK         0.0813 
    118 H118       32.1150   26.7157    8.7198 H         1 UNK         0.0813 
    119 H119       30.5468   27.4689    8.9712 H         1 UNK         0.0813 
    120 H120       33.9341   28.3486    6.8887 H         1 UNK         0.3038 
    121 H121       35.4593   29.8596    7.2907 H         1 UNK         0.0769 
    122 H122       33.5402   31.3386    9.1654 H         1 UNK         0.0811 
    123 H123       35.2752   31.5667    9.0477 H         1 UNK         0.0811 
    124 H124       34.6363   30.0408    9.6376 H         1 UNK         0.0811 
    125 H125       32.2957   31.3478    6.6177 H         1 UNK         0.3204 
    126 H126       33.2162   33.7167    5.3353 H         1 UNK         0.0748 
    127 H127       30.9129   33.8276    4.4088 H         1 UNK         0.0771 
    128 H128       30.6140   32.1610    4.8736 H         1 UNK         0.0771 
    129 H129       30.8653   33.3924    6.1101 H         1 UNK         0.0771 
    130 H130       32.7440   30.4155    4.0761 H         1 UNK         0.2980 
    131 H131       33.3841   31.0029    1.3669 H         1 UNK         0.0545 
    132 H132       35.6069   31.2847    4.0095 H         1 UNK         0.3459 
    133 H133       37.0387   31.0861    3.0305 H         1 UNK         0.3459 
    134 H134       33.6878   28.5668    1.0981 H         1 UNK         0.0616 
    135 H135       32.2042   28.9828    1.9067 H         1 UNK         0.0616 
    136 H136       32.2406   26.1926    4.3246 H         1 UNK         0.0634 
    137 H137       31.3773   27.2317    3.2271 H         1 UNK         0.0634 
@<TRIPOS>BOND
     1    1    2 1    
     2    1   72 1    
     3    1   73 1    
     4    1   74 1    
     5    2    3 2    
     6    2    4 am   BACKBONE|DICT|INTERRES
     7    4    5 1    
     8    4   75 1    
     9    5    6 1    
    10    5   35 1    
    11    5   76 1    
    12    6    7 1    
    13    6   77 1    
    14    6   78 1    
    15    7    8 1    
    16    8    9 1    
    17    8   79 1    
    18    8   80 1    
    19    9   10 ar   
    20    9   14 ar   
    21   10   11 ar   
    22   10   81 1    
    23   11   12 ar   
    24   11   71 1    
    25   12   13 ar   
    26   12   82 1    
    27   13   14 ar   
    28   13   15 1    
    29   14   83 1    
    30   15   16 1    
    31   15   84 1    
    32   15   85 1    
    33   16   17 1    
    34   17   18 1    
    35   17   86 1    
    36   17   87 1    
    37   18   19 1    
    38   18   37 1    
    39   18   88 1    
    40   19   20 am   BACKBONE|DICT|INTERRES
    41   19   89 1    
    42   20   21 2    
    43   20   22 1    
    44   22   23 1    
    45   22   24 1    
    46   22   90 1    
    47   23   91 1    
    48   23   92 1    
    49   23   93 1    
    50   24   25 am   BACKBONE|DICT|INTERRES
    51   24   94 1    
    52   25   26 2    
    53   25   27 1    
    54   27   28 1    
    55   27   29 1    
    56   27   95 1    
    57   28   96 1    
    58   28   97 1    
    59   28   98 1    
    60   29   30 am   BACKBONE|DICT|INTERRES
    61   29   99 1    
    62   30   31 2    
    63   30   32 1    
    64   32   33 1    
    65   32   34 1    
    66   32  100 1    
    67   33  101 1    
    68   33  102 1    
    69   33  103 1    
    70   34   35 am   BACKBONE|DICT|INTERRES
    71   34  104 1    
    72   35   36 2    
    73   37   38 2    
    74   37   39 am   BACKBONE|DICT|INTERRES
    75   39   40 1    
    76   39  105 1    
    77   40   41 1    
    78   40   42 1    
    79   40  106 1    
    80   41  107 1    
    81   41  108 1    
    82   41  109 1    
    83   42   43 2    
    84   42   44 am   BACKBONE|DICT|INTERRES
    85   44   45 1    
    86   44  110 1    
    87   45   46 1    
    88   45   47 1    
    89   45  111 1    
    90   46  112 1    
    91   46  113 1    
    92   46  114 1    
    93   47   48 2    
    94   47   49 am   BACKBONE|DICT|INTERRES
    95   49   50 1    
    96   49  115 1    
    97   50   51 1    
    98   50   52 1    
    99   50  116 1    
   100   51  117 1    
   101   51  118 1    
   102   51  119 1    
   103   52   53 2    
   104   52   54 am   BACKBONE|DICT|INTERRES
   105   54   55 1    
   106   54  120 1    
   107   55   56 1    
   108   55   57 1    
   109   55  121 1    
   110   56  122 1    
   111   56  123 1    
   112   56  124 1    
   113   57   58 2    
   114   57   59 am   BACKBONE|DICT|INTERRES
   115   59   60 1    
   116   59  125 1    
   117   60   61 1    
   118   60   62 1    
   119   60  126 1    
   120   61  127 1    
   121   61  128 1    
   122   61  129 1    
   123   62   63 2    
   124   62   64 am   BACKBONE|DICT|INTERRES
   125   64   65 1    
   126   64  130 1    
   127   65   66 1    
   128   65   69 1    
   129   65  131 1    
   130   66   67 am   BACKBONE|DICT|INTERRES
   131   66   68 2    
   132   67  132 1    
   133   67  133 1    
   134   69   70 1    
   135   69  134 1    
   136   69  135 1    
   137   70   71 1    
   138   71  136 1    
   139   71  137 1    
@<TRIPOS>SUBSTRUCTURE
     1 UNK         1 GROUP             0       ****    0 ROOT    
