@<TRIPOS>MOLECULE
3R136
137   139    1
SMALL
USER_CHARGES


@<TRIPOS>ATOM
      1 CA         33.1032   25.1271   -0.0877 C.3       0 UNK        -0.1979 
      2 C          31.6800   24.8768    0.3853 C.2       0 UNK         0.4864 
      3 O          30.8734   25.8075    0.4276 O.2       0 UNK        -0.5359 
      4 N          31.3649   23.6251    0.7397 N.am      1 UNK        -0.4318 
      5 CA         30.0166   23.2050    1.1200 C.3       1 UNK         0.0824 
      6 C6         30.0352   21.9306    2.0009 C.3       12 UNK        -0.0944 
      7 S7         28.5206   21.7715    3.0093 S.3       12 UNK        -0.2672 
      8 C8         29.0519   22.4638    4.6094 C.3       12 UNK         0.0333 
      9 C9         29.2754   23.9675    4.5309 C.ar      12 UNK        -0.0807 
     10 C10        30.5550   24.4761    4.2894 C.ar      12 UNK        -0.0894 
     11 C11        30.7643   25.8537    4.1936 C.ar      12 UNK        -0.0804 
     12 C12        29.6881   26.7290    4.3643 C.ar      12 UNK        -0.0824 
     13 C13        28.4071   26.2346    4.6282 C.ar      12 UNK        -0.0762 
     14 C14        28.2054   24.8521    4.7032 C.ar      12 UNK        -0.0782 
     15 C15        27.2496   27.1925    4.8756 C.3       12 UNK         0.0230 
     16 S16        26.0891   27.2702    3.4755 S.3       12 UNK        -0.2608 
     17 C17        27.0175   28.2565    2.2505 C.3       12 UNK        -0.0989 
     18 CA         27.0691   27.5576    0.8667 C.3       5 UNK         0.0716 
     19 N          25.7446   27.2933    0.2791 N.am      5 UNK        -0.4135 
     20 C          24.8066   28.1861   -0.0853 C.2       4 UNK         0.5031 
     21 O          24.8771   29.3945    0.1398 O.2       4 UNK        -0.5229 
     22 CA         23.5710   27.6704   -0.8523 C.3       4 UNK         0.0329 
     23 CB         23.5153   28.2949   -2.2583 C.3       4 UNK        -0.2001 
     24 N          23.5457   26.2140   -0.9964 N.am      4 UNK        -0.4303 
     25 C          22.8533   25.3720   -0.2176 C.2       3 UNK         0.5044 
     26 O          22.0956   25.7301    0.6846 O.2       3 UNK        -0.5152 
     27 CA         23.0634   23.8657   -0.4765 C.3       3 UNK         0.0319 
     28 CB         21.9966   23.3334   -1.4469 C.3       3 UNK        -0.2001 
     29 N          24.4000   23.5245   -0.9866 N.am      3 UNK        -0.4354 
     30 C          25.5441   23.7868   -0.3414 C.2       2 UNK         0.4964 
     31 O          25.5963   24.3617    0.7496 O.2       2 UNK        -0.5047 
     32 CA         26.8497   23.4198   -1.0526 C.3       2 UNK         0.0288 
     33 CB         27.1323   24.3906   -2.2175 C.3       2 UNK        -0.2113 
     34 N          27.9034   23.5038   -0.0496 N.am      2 UNK        -0.4145 
     35 C          29.1458   23.0272   -0.1372 C.2       1 UNK         0.5006 
     36 O          29.6028   22.4563   -1.1313 O.2       1 UNK        -0.5103 
     37 C          27.9590   28.3182   -0.1410 C.2       5 UNK         0.5055 
     38 O          27.8544   29.5407   -0.2604 O.2       5 UNK        -0.5220 
     39 N          28.7890   27.5753   -0.8881 N.am      6 UNK        -0.4450 
     40 CA         29.6457   28.1134   -1.9505 C.3       6 UNK         0.0367 
     41 CB         30.1913   26.9640   -2.8137 C.3       6 UNK        -0.1929 
     42 C          30.7872   28.9955   -1.4160 C.2       6 UNK         0.5070 
     43 O          31.1190   29.9983   -2.0498 O.2       6 UNK        -0.5237 
     44 N          31.3431   28.6244   -0.2577 N.am      7 UNK        -0.4739 
     45 CA         32.2685   29.4406    0.5259 C.3       7 UNK         0.0276 
     46 CB         33.5085   28.6020    0.8741 C.3       7 UNK        -0.1927 
     47 C          31.5598   29.9386    1.7948 C.2       7 UNK         0.5013 
     48 O          30.5635   29.3514    2.2222 O.2       7 UNK        -0.5193 
     49 N          32.1004   31.0069    2.3852 N.am      8 UNK        -0.4253 
     50 CA         31.6039   31.6598    3.5945 C.3       8 UNK         0.0242 
     51 CB         30.5560   32.7221    3.2100 C.3       8 UNK        -0.2000 
     52 C          32.7951   32.2732    4.3439 C.2       8 UNK         0.4948 
     53 O          33.9194   32.2067    3.8414 O.2       8 UNK        -0.5275 
     54 N          32.5278   32.8424    5.5304 N.am      9 UNK        -0.4246 
     55 CA         33.4942   33.4421    6.4651 C.3       9 UNK         0.0261 
     56 CB         34.1635   34.6915    5.8518 C.3       9 UNK        -0.1959 
     57 C          34.5104   32.3965    6.9591 C.2       9 UNK         0.5033 
     58 O          35.6876   32.4472    6.5959 O.2       9 UNK        -0.5390 
     59 N          33.9978   31.4163    7.7203 N.am      10 UNK        -0.4215 
     60 CA         34.6940   30.2098    8.1984 C.3       10 UNK         0.0240 
     61 CB         35.8001   30.5731    9.2128 C.3       10 UNK        -0.1982 
     62 C          35.2053   29.3130    7.0497 C.2       10 UNK         0.4970 
     63 O          36.2062   28.6132    7.2130 O.2       10 UNK        -0.4916 
     64 N          34.5020   29.3672    5.9101 N.am      11 UNK        -0.4279 
     65 CA         34.8182   28.6959    4.6400 C.3       11 UNK         0.1003 
     66 C          36.1321   29.1915    3.9594 C.2       11 UNK         0.5709 
     67 N          36.6656   30.3557    4.3128 N.am      11 UNK        -0.7358 
     68 O          36.6641   28.5270    3.0734 O.2       11 UNK        -0.4999 
     69 C69        34.7231   27.1442    4.7237 C.3       12 UNK        -0.0954 
     70 S70        33.1372   26.5570    5.4112 S.3       12 UNK        -0.2268 
     71 C71        32.1523   26.3924    3.8953 C.3       12 UNK         0.0203 
     72 H72        33.7247   25.4584    0.7432 H         1 UNK         0.0888 
     73 H73        33.5477   24.2263   -0.5102 H         1 UNK         0.0888 
     74 H74        33.1160   25.8997   -0.8561 H         1 UNK         0.0888 
     75 H75        32.0497   22.8888    0.6464 H         1 UNK         0.3017 
     76 H76        29.5869   24.0173    1.7104 H         1 UNK         0.0873 
     77 H77        30.8939   21.9445    2.6734 H         1 UNK         0.0745 
     78 H78        30.1562   21.0303    1.3948 H         1 UNK         0.0745 
     79 H79        29.9568   21.9564    4.9478 H         1 UNK         0.0705 
     80 H80        28.2871   22.2462    5.3564 H         1 UNK         0.0705 
     81 H81        31.3894   23.8006    4.1608 H         1 UNK         0.1334 
     82 H82        29.8523   27.7961    4.2986 H         1 UNK         0.1417 
     83 H83        27.2140   24.4657    4.8981 H         1 UNK         0.1562 
     84 H84        27.6140   28.1962    5.1008 H         1 UNK         0.0748 
     85 H85        26.7028   26.8661    5.7615 H         1 UNK         0.0748 
     86 H86        28.0307   28.4287    2.6170 H         1 UNK         0.0940 
     87 H87        26.5573   29.2430    2.1769 H         1 UNK         0.0940 
     88 H88        27.5263   26.5789    1.0247 H         1 UNK         0.0703 
     89 H89        25.5313   26.3109    0.1584 H         1 UNK         0.3081 
     90 H90        22.6894   28.0040   -0.3009 H         1 UNK         0.0719 
     91 H91        24.3878   28.0267   -2.8553 H         1 UNK         0.0809 
     92 H92        22.6253   27.9736   -2.7998 H         1 UNK         0.0809 
     93 H93        23.4810   29.3839   -2.2033 H         1 UNK         0.0809 
     94 H94        24.1200   25.8206   -1.7278 H         1 UNK         0.2990 
     95 H95        22.9390   23.3542    0.4805 H         1 UNK         0.0690 
     96 H96        22.0683   22.2517   -1.5624 H         1 UNK         0.0788 
     97 H97        22.0878   23.7849   -2.4357 H         1 UNK         0.0788 
     98 H98        20.9923   23.5516   -1.0807 H         1 UNK         0.0788 
     99 H99        24.4380   23.0611   -1.8839 H         1 UNK         0.2993 
    100 H100       26.7828   22.3929   -1.4181 H         1 UNK         0.0949 
    101 H101       28.0849   24.1711   -2.6997 H         1 UNK         0.0767 
    102 H102       26.3637   24.3156   -2.9875 H         1 UNK         0.0767 
    103 H103       27.1591   25.4280   -1.8842 H         1 UNK         0.0767 
    104 H104       27.5768   23.8958    0.8273 H         1 UNK         0.3013 
    105 H105       28.9118   26.5959   -0.6693 H         1 UNK         0.3121 
    106 H106       29.0231   28.7427   -2.5904 H         1 UNK         0.0774 
    107 H107       30.8136   27.3484   -3.6229 H         1 UNK         0.0815 
    108 H108       30.8038   26.2737   -2.2343 H         1 UNK         0.0815 
    109 H109       29.3836   26.3934   -3.2717 H         1 UNK         0.0815 
    110 H110       30.9942   27.7839    0.1963 H         1 UNK         0.2987 
    111 H111       32.5893   30.3129   -0.0480 H         1 UNK         0.0949 
    112 H112       34.2354   29.1885    1.4364 H         1 UNK         0.0806 
    113 H113       33.2534   27.7298    1.4732 H         1 UNK         0.0806 
    114 H114       34.0108   28.2508   -0.0272 H         1 UNK         0.0806 
    115 H115       32.9752   31.3884    2.0455 H         1 UNK         0.3010 
    116 H116       31.1470   30.9140    4.2490 H         1 UNK         0.0829 
    117 H117       29.7267   32.2770    2.6594 H         1 UNK         0.0813 
    118 H118       30.1308   33.2036    4.0910 H         1 UNK         0.0813 
    119 H119       30.9884   33.5045    2.5850 H         1 UNK         0.0813 
    120 H120       31.5675   32.8423    5.8468 H         1 UNK         0.3038 
    121 H121       32.9289   33.7734    7.3378 H         1 UNK         0.0769 
    122 H122       34.8205   35.1735    6.5767 H         1 UNK         0.0811 
    123 H123       33.4213   35.4285    5.5456 H         1 UNK         0.0811 
    124 H124       34.7714   34.4472    4.9801 H         1 UNK         0.0811 
    125 H125       33.0151   31.4683    7.9541 H         1 UNK         0.3204 
    126 H126       33.9470   29.6163    8.7278 H         1 UNK         0.0748 
    127 H127       36.2163   29.6777    9.6762 H         1 UNK         0.0771 
    128 H128       36.6255   31.1061    8.7397 H         1 UNK         0.0771 
    129 H129       35.4121   31.2001   10.0155 H         1 UNK         0.0771 
    130 H130       33.7055   29.9832    5.8836 H         1 UNK         0.2980 
    131 H131       34.0325   29.0193    3.9572 H         1 UNK         0.0545 
    132 H132       37.5062   30.6697    3.8558 H         1 UNK         0.3459 
    133 H133       36.2213   30.9420    5.0082 H         1 UNK         0.3459 
    134 H134       34.8604   26.6959    3.7382 H         1 UNK         0.0616 
    135 H135       35.5268   26.7485    5.3462 H         1 UNK         0.0616 
    136 H136       32.0758   27.3669    3.4144 H         1 UNK         0.0634 
    137 H137       32.6644   25.7324    3.1942 H         1 UNK         0.0634 
@<TRIPOS>BOND
     1    1    2 1    
     2    1   72 1    
     3    1   73 1    
     4    1   74 1    
     5    2    3 2    
     6    2    4 am   BACKBONE|DICT|INTERRES
     7    4    5 1    
     8    4   75 1    
     9    5    6 1    
    10    5   35 1    
    11    5   76 1    
    12    6    7 1    
    13    6   77 1    
    14    6   78 1    
    15    7    8 1    
    16    8    9 1    
    17    8   79 1    
    18    8   80 1    
    19    9   10 ar   
    20    9   14 ar   
    21   10   11 ar   
    22   10   81 1    
    23   11   12 ar   
    24   11   71 1    
    25   12   13 ar   
    26   12   82 1    
    27   13   14 ar   
    28   13   15 1    
    29   14   83 1    
    30   15   16 1    
    31   15   84 1    
    32   15   85 1    
    33   16   17 1    
    34   17   18 1    
    35   17   86 1    
    36   17   87 1    
    37   18   19 1    
    38   18   37 1    
    39   18   88 1    
    40   19   20 am   BACKBONE|DICT|INTERRES
    41   19   89 1    
    42   20   21 2    
    43   20   22 1    
    44   22   23 1    
    45   22   24 1    
    46   22   90 1    
    47   23   91 1    
    48   23   92 1    
    49   23   93 1    
    50   24   25 am   BACKBONE|DICT|INTERRES
    51   24   94 1    
    52   25   26 2    
    53   25   27 1    
    54   27   28 1    
    55   27   29 1    
    56   27   95 1    
    57   28   96 1    
    58   28   97 1    
    59   28   98 1    
    60   29   30 am   BACKBONE|DICT|INTERRES
    61   29   99 1    
    62   30   31 2    
    63   30   32 1    
    64   32   33 1    
    65   32   34 1    
    66   32  100 1    
    67   33  101 1    
    68   33  102 1    
    69   33  103 1    
    70   34   35 am   BACKBONE|DICT|INTERRES
    71   34  104 1    
    72   35   36 2    
    73   37   38 2    
    74   37   39 am   BACKBONE|DICT|INTERRES
    75   39   40 1    
    76   39  105 1    
    77   40   41 1    
    78   40   42 1    
    79   40  106 1    
    80   41  107 1    
    81   41  108 1    
    82   41  109 1    
    83   42   43 2    
    84   42   44 am   BACKBONE|DICT|INTERRES
    85   44   45 1    
    86   44  110 1    
    87   45   46 1    
    88   45   47 1    
    89   45  111 1    
    90   46  112 1    
    91   46  113 1    
    92   46  114 1    
    93   47   48 2    
    94   47   49 am   BACKBONE|DICT|INTERRES
    95   49   50 1    
    96   49  115 1    
    97   50   51 1    
    98   50   52 1    
    99   50  116 1    
   100   51  117 1    
   101   51  118 1    
   102   51  119 1    
   103   52   53 2    
   104   52   54 am   BACKBONE|DICT|INTERRES
   105   54   55 1    
   106   54  120 1    
   107   55   56 1    
   108   55   57 1    
   109   55  121 1    
   110   56  122 1    
   111   56  123 1    
   112   56  124 1    
   113   57   58 2    
   114   57   59 am   BACKBONE|DICT|INTERRES
   115   59   60 1    
   116   59  125 1    
   117   60   61 1    
   118   60   62 1    
   119   60  126 1    
   120   61  127 1    
   121   61  128 1    
   122   61  129 1    
   123   62   63 2    
   124   62   64 am   BACKBONE|DICT|INTERRES
   125   64   65 1    
   126   64  130 1    
   127   65   66 1    
   128   65   69 1    
   129   65  131 1    
   130   66   67 am   BACKBONE|DICT|INTERRES
   131   66   68 2    
   132   67  132 1    
   133   67  133 1    
   134   69   70 1    
   135   69  134 1    
   136   69  135 1    
   137   70   71 1    
   138   71  136 1    
   139   71  137 1    
@<TRIPOS>SUBSTRUCTURE
     1 UNK         1 GROUP             0       ****    0 ROOT    
