@<TRIPOS>MOLECULE
3R136
137   139    1
SMALL
USER_CHARGES


@<TRIPOS>ATOM
      1 CA         27.2917   21.0091   -1.8535 C.3       0 UNK        -0.1979 
      2 C          27.9891   21.5284   -0.6048 C.2       0 UNK         0.4864 
      3 O          29.0972   21.0895   -0.3004 O.2       0 UNK        -0.5359 
      4 N          27.3421   22.4539    0.1095 N.am      1 UNK        -0.4318 
      5 CA         27.8208   23.1751    1.2878 C.3       1 UNK         0.0824 
      6 C6         27.9846   22.2631    2.5402 C.3       12 UNK        -0.0944 
      7 S7         28.9989   22.9862    3.8851 S.3       12 UNK        -0.2672 
      8 C8         30.6099   22.1471    3.7147 C.3       12 UNK         0.0333 
      9 C9         31.5852   22.9709    2.8863 C.ar      12 UNK        -0.0807 
     10 C10        32.5766   23.7422    3.5045 C.ar      12 UNK        -0.0894 
     11 C11        33.4601   24.5100    2.7365 C.ar      12 UNK        -0.0804 
     12 C12        33.3353   24.5140    1.3434 C.ar      12 UNK        -0.0824 
     13 C13        32.3468   23.7486    0.7167 C.ar      12 UNK        -0.0762 
     14 C14        31.4949   22.9616    1.4937 C.ar      12 UNK        -0.0782 
     15 C15        32.1818   23.7804   -0.7974 C.3       12 UNK         0.0230 
     16 S16        30.6062   24.5552   -1.2950 S.3       12 UNK        -0.2608 
     17 C17        30.7254   26.1803   -0.4757 C.3       12 UNK        -0.0989 
     18 CA         30.0939   27.3409   -1.2944 C.3       5 UNK         0.0716 
     19 N          28.6580   27.1350   -1.4730 N.am      5 UNK        -0.4135 
     20 C          28.0435   26.8086   -2.6161 C.2       4 UNK         0.5031 
     21 O          28.6259   26.6629   -3.6920 O.2       4 UNK        -0.5229 
     22 CA         26.5190   26.5836   -2.5620 C.3       4 UNK         0.0329 
     23 CB         26.2010   25.0826   -2.6647 C.3       4 UNK        -0.2001 
     24 N          25.8971   27.1307   -1.3515 N.am      4 UNK        -0.4303 
     25 C          25.6846   28.4401   -1.1480 C.2       3 UNK         0.5044 
     26 O          25.8933   29.2992   -2.0055 O.2       3 UNK        -0.5152 
     27 CA         25.1626   28.8867    0.2323 C.3       3 UNK         0.0319 
     28 CB         23.6922   29.3261    0.1379 C.3       3 UNK        -0.2001 
     29 N          25.2908   27.8917    1.3023 N.am      3 UNK        -0.4354 
     30 C          26.4414   27.3990    1.7803 C.2       2 UNK         0.4964 
     31 O          27.5498   27.7034    1.3392 O.2       2 UNK        -0.5047 
     32 CA         26.3535   26.3658    2.9209 C.3       2 UNK         0.0288 
     33 CB         24.9149   26.0487    3.3902 C.3       2 UNK        -0.2113 
     34 N          27.0620   25.1306    2.5687 N.am      2 UNK        -0.4145 
     35 C          26.8563   24.3633    1.4905 C.2       1 UNK         0.5006 
     36 O          25.9612   24.5762    0.6633 O.2       1 UNK        -0.5103 
     37 C          30.3095   28.7029   -0.6002 C.2       5 UNK         0.5055 
     38 O          29.3654   29.4777   -0.4275 O.2       5 UNK        -0.5220 
     39 N          31.5514   28.9608   -0.1648 N.am      6 UNK        -0.4450 
     40 CA         31.8972   30.0503    0.7560 C.3       6 UNK         0.0367 
     41 CB         33.4213   30.2513    0.7469 C.3       6 UNK        -0.1929 
     42 C          31.4058   29.8024    2.1974 C.2       6 UNK         0.5070 
     43 O          31.4066   30.7377    2.9964 O.2       6 UNK        -0.5237 
     44 N          30.9921   28.5623    2.4991 N.am      7 UNK        -0.4739 
     45 CA         30.5753   28.0338    3.8036 C.3       7 UNK         0.0276 
     46 CB         30.1452   26.5736    3.6158 C.3       7 UNK        -0.1927 
     47 C          29.4877   28.8308    4.5461 C.2       7 UNK         0.5013 
     48 O          29.3934   28.7234    5.7690 O.2       7 UNK        -0.5193 
     49 N          28.6936   29.6195    3.8112 N.am      8 UNK        -0.4253 
     50 CA         27.7209   30.5616    4.3655 C.3       8 UNK         0.0242 
     51 CB         26.7656   31.0136    3.2490 C.3       8 UNK        -0.2000 
     52 C          28.3536   31.7865    5.0582 C.2       8 UNK         0.4948 
     53 O          27.6662   32.4180    5.8626 O.2       8 UNK        -0.5275 
     54 N          29.6115   32.1234    4.7328 N.am      9 UNK        -0.4246 
     55 CA         30.2966   33.3271    5.2183 C.3       9 UNK         0.0261 
     56 CB         30.3245   34.3746    4.0918 C.3       9 UNK        -0.1959 
     57 C          31.7204   33.0698    5.7396 C.2       9 UNK         0.5033 
     58 O          32.1631   33.8062    6.6233 O.2       9 UNK        -0.5390 
     59 N          32.4247   32.0723    5.1936 N.am      10 UNK        -0.4215 
     60 CA         33.8180   31.7498    5.5053 C.3       10 UNK         0.0240 
     61 CB         34.7313   32.4401    4.4707 C.3       10 UNK        -0.1982 
     62 C          34.0138   30.2250    5.5456 C.2       10 UNK         0.4970 
     63 O          33.0317   29.4895    5.6109 O.2       10 UNK        -0.4916 
     64 N          35.2807   29.7913    5.5460 N.am      11 UNK        -0.4279 
     65 CA         35.7809   28.4023    5.5065 C.3       11 UNK         0.1003 
     66 C          35.3431   27.4330    6.6486 C.2       11 UNK         0.5709 
     67 N          34.6192   27.8797    7.6665 N.am      11 UNK        -0.7358 
     68 O          35.7216   26.2639    6.6445 O.2       11 UNK        -0.4999 
     69 C69        35.7518   27.7794    4.0770 C.3       12 UNK        -0.0954 
     70 S70        34.1576   27.0879    3.5067 S.3       12 UNK        -0.2268 
     71 C71        34.5670   25.3168    3.4010 C.3       12 UNK         0.0203 
     72 H72        27.9023   21.2105   -2.7332 H         1 UNK         0.0888 
     73 H73        27.1429   19.9322   -1.7800 H         1 UNK         0.0888 
     74 H74        26.3187   21.4772   -2.0024 H         1 UNK         0.0888 
     75 H75        26.4427   22.8032   -0.2034 H         1 UNK         0.3017 
     76 H76        28.7871   23.6079    1.0277 H         1 UNK         0.0873 
     77 H77        28.4338   21.3110    2.2582 H         1 UNK         0.0745 
     78 H78        27.0062   22.0036    2.9487 H         1 UNK         0.0745 
     79 H79        30.4851   21.1558    3.2771 H         1 UNK         0.0705 
     80 H80        31.0185   21.9835    4.7130 H         1 UNK         0.0705 
     81 H81        32.6599   23.7477    4.5828 H         1 UNK         0.1334 
     82 H82        34.0089   25.1175    0.7504 H         1 UNK         0.1417 
     83 H83        30.7403   22.3596    1.0114 H         1 UNK         0.1562 
     84 H84        32.2121   22.7610   -1.1847 H         1 UNK         0.0748 
     85 H85        33.0081   24.3141   -1.2695 H         1 UNK         0.0748 
     86 H86        31.7825   26.3701   -0.2888 H         1 UNK         0.0940 
     87 H87        30.2503   26.0948    0.5036 H         1 UNK         0.0940 
     88 H88        30.5908   27.4037   -2.2647 H         1 UNK         0.0703 
     89 H89        28.0994   27.3344   -0.6494 H         1 UNK         0.3081 
     90 H90        26.0809   27.0816   -3.4297 H         1 UNK         0.0719 
     91 H91        26.5390   24.6797   -3.6204 H         1 UNK         0.0809 
     92 H92        26.7014   24.5125   -1.8825 H         1 UNK         0.0809 
     93 H93        25.1302   24.8921   -2.5923 H         1 UNK         0.0809 
     94 H94        25.7061   26.4782   -0.6002 H         1 UNK         0.2990 
     95 H95        25.7587   29.7548    0.5204 H         1 UNK         0.0690 
     96 H96        23.3416   29.7464    1.0807 H         1 UNK         0.0788 
     97 H97        23.0389   28.4930   -0.1245 H         1 UNK         0.0788 
     98 H98        23.5611   30.0955   -0.6244 H         1 UNK         0.0788 
     99 H99        24.4293   27.5530    1.7058 H         1 UNK         0.2993 
    100 H100       26.8885   26.8050    3.7645 H         1 UNK         0.0949 
    101 H101       24.3073   25.6099    2.5977 H         1 UNK         0.0767 
    102 H102       24.9260   25.3415    4.2199 H         1 UNK         0.0767 
    103 H103       24.4065   26.9451    3.7482 H         1 UNK         0.0767 
    104 H104       27.8088   24.8533    3.1938 H         1 UNK         0.3013 
    105 H105       32.2949   28.3149   -0.3886 H         1 UNK         0.3121 
    106 H106       31.4254   30.9695    0.4019 H         1 UNK         0.0774 
    107 H107       33.7047   31.0949    1.3771 H         1 UNK         0.0815 
    108 H108       33.9482   29.3735    1.1241 H         1 UNK         0.0815 
    109 H109       33.7901   30.4627   -0.2568 H         1 UNK         0.0815 
    110 H110       31.0347   27.8828    1.7576 H         1 UNK         0.2987 
    111 H111       31.4530   28.0299    4.4463 H         1 UNK         0.0949 
    112 H112       30.9764   25.9649    3.2654 H         1 UNK         0.0806 
    113 H113       29.7952   26.1352    4.5514 H         1 UNK         0.0806 
    114 H114       29.3461   26.4887    2.8839 H         1 UNK         0.0806 
    115 H115       28.8201   29.6168    2.8079 H         1 UNK         0.3010 
    116 H116       27.1329   30.0359    5.1211 H         1 UNK         0.0829 
    117 H117       27.3028   31.4595    2.4110 H         1 UNK         0.0813 
    118 H118       26.0556   31.7568    3.6149 H         1 UNK         0.0813 
    119 H119       26.1806   30.1774    2.8706 H         1 UNK         0.0813 
    120 H120       30.1211   31.5434    4.0700 H         1 UNK         0.3038 
    121 H121       29.7451   33.7550    6.0581 H         1 UNK         0.0769 
    122 H122       29.3161   34.6531    3.7855 H         1 UNK         0.0811 
    123 H123       30.8522   34.0037    3.2121 H         1 UNK         0.0811 
    124 H124       30.8278   35.2867    4.4159 H         1 UNK         0.0811 
    125 H125       32.0027   31.4832    4.4752 H         1 UNK         0.3204 
    126 H126       34.0680   32.1207    6.5013 H         1 UNK         0.0748 
    127 H127       34.5904   32.0244    3.4725 H         1 UNK         0.0771 
    128 H128       34.5258   33.5095    4.4153 H         1 UNK         0.0771 
    129 H129       35.7858   32.3369    4.7272 H         1 UNK         0.0771 
    130 H130       36.0070   30.4920    5.5441 H         1 UNK         0.2980 
    131 H131       36.8403   28.5413    5.7252 H         1 UNK         0.0545 
    132 H132       34.3633   27.2463    8.4069 H         1 UNK         0.3459 
    133 H133       34.2643   28.8223    7.6582 H         1 UNK         0.3459 
    134 H134       36.0622   28.5280    3.3467 H         1 UNK         0.0616 
    135 H135       36.5115   26.9986    4.0167 H         1 UNK         0.0616 
    136 H136       34.7689   24.9354    4.4029 H         1 UNK         0.0634 
    137 H137       35.4891   25.1919    2.8315 H         1 UNK         0.0634 
@<TRIPOS>BOND
     1    1    2 1    
     2    1   72 1    
     3    1   73 1    
     4    1   74 1    
     5    2    3 2    
     6    2    4 am   BACKBONE|DICT|INTERRES
     7    4    5 1    
     8    4   75 1    
     9    5    6 1    
    10    5   35 1    
    11    5   76 1    
    12    6    7 1    
    13    6   77 1    
    14    6   78 1    
    15    7    8 1    
    16    8    9 1    
    17    8   79 1    
    18    8   80 1    
    19    9   10 ar   
    20    9   14 ar   
    21   10   11 ar   
    22   10   81 1    
    23   11   12 ar   
    24   11   71 1    
    25   12   13 ar   
    26   12   82 1    
    27   13   14 ar   
    28   13   15 1    
    29   14   83 1    
    30   15   16 1    
    31   15   84 1    
    32   15   85 1    
    33   16   17 1    
    34   17   18 1    
    35   17   86 1    
    36   17   87 1    
    37   18   19 1    
    38   18   37 1    
    39   18   88 1    
    40   19   20 am   BACKBONE|DICT|INTERRES
    41   19   89 1    
    42   20   21 2    
    43   20   22 1    
    44   22   23 1    
    45   22   24 1    
    46   22   90 1    
    47   23   91 1    
    48   23   92 1    
    49   23   93 1    
    50   24   25 am   BACKBONE|DICT|INTERRES
    51   24   94 1    
    52   25   26 2    
    53   25   27 1    
    54   27   28 1    
    55   27   29 1    
    56   27   95 1    
    57   28   96 1    
    58   28   97 1    
    59   28   98 1    
    60   29   30 am   BACKBONE|DICT|INTERRES
    61   29   99 1    
    62   30   31 2    
    63   30   32 1    
    64   32   33 1    
    65   32   34 1    
    66   32  100 1    
    67   33  101 1    
    68   33  102 1    
    69   33  103 1    
    70   34   35 am   BACKBONE|DICT|INTERRES
    71   34  104 1    
    72   35   36 2    
    73   37   38 2    
    74   37   39 am   BACKBONE|DICT|INTERRES
    75   39   40 1    
    76   39  105 1    
    77   40   41 1    
    78   40   42 1    
    79   40  106 1    
    80   41  107 1    
    81   41  108 1    
    82   41  109 1    
    83   42   43 2    
    84   42   44 am   BACKBONE|DICT|INTERRES
    85   44   45 1    
    86   44  110 1    
    87   45   46 1    
    88   45   47 1    
    89   45  111 1    
    90   46  112 1    
    91   46  113 1    
    92   46  114 1    
    93   47   48 2    
    94   47   49 am   BACKBONE|DICT|INTERRES
    95   49   50 1    
    96   49  115 1    
    97   50   51 1    
    98   50   52 1    
    99   50  116 1    
   100   51  117 1    
   101   51  118 1    
   102   51  119 1    
   103   52   53 2    
   104   52   54 am   BACKBONE|DICT|INTERRES
   105   54   55 1    
   106   54  120 1    
   107   55   56 1    
   108   55   57 1    
   109   55  121 1    
   110   56  122 1    
   111   56  123 1    
   112   56  124 1    
   113   57   58 2    
   114   57   59 am   BACKBONE|DICT|INTERRES
   115   59   60 1    
   116   59  125 1    
   117   60   61 1    
   118   60   62 1    
   119   60  126 1    
   120   61  127 1    
   121   61  128 1    
   122   61  129 1    
   123   62   63 2    
   124   62   64 am   BACKBONE|DICT|INTERRES
   125   64   65 1    
   126   64  130 1    
   127   65   66 1    
   128   65   69 1    
   129   65  131 1    
   130   66   67 am   BACKBONE|DICT|INTERRES
   131   66   68 2    
   132   67  132 1    
   133   67  133 1    
   134   69   70 1    
   135   69  134 1    
   136   69  135 1    
   137   70   71 1    
   138   71  136 1    
   139   71  137 1    
@<TRIPOS>SUBSTRUCTURE
     1 UNK         1 GROUP             0       ****    0 ROOT    
