@<TRIPOS>MOLECULE
3R136
137   139    1
SMALL
USER_CHARGES


@<TRIPOS>ATOM
      1 CA         32.0977   22.9317    5.2824 C.3       0 UNK        -0.1979 
      2 C          30.9033   22.4451    4.4747 C.2       0 UNK         0.4864 
      3 O          30.3325   21.4012    4.7928 O.2       0 UNK        -0.5359 
      4 N          30.5245   23.2022    3.4401 N.am      1 UNK        -0.4318 
      5 CA         29.3571   22.9574    2.5858 C.3       1 UNK         0.0824 
      6 C6         29.7074   23.1953    1.0981 C.3       12 UNK        -0.0944 
      7 S7         30.6090   21.7791    0.3784 S.3       12 UNK        -0.2672 
      8 C8         32.3578   22.2667    0.5502 C.3       12 UNK         0.0333 
      9 C9         32.6704   23.5974   -0.1203 C.ar      12 UNK        -0.0807 
     10 C10        33.2383   24.6356    0.6236 C.ar      12 UNK        -0.0894 
     11 C11        33.4910   25.8749    0.0302 C.ar      12 UNK        -0.0804 
     12 C12        33.1804   26.0726   -1.3169 C.ar      12 UNK        -0.0824 
     13 C13        32.5848   25.0513   -2.0618 C.ar      12 UNK        -0.0762 
     14 C14        32.3581   23.8069   -1.4679 C.ar      12 UNK        -0.0782 
     15 C15        32.1121   25.3208   -3.4818 C.3       12 UNK         0.0230 
     16 S16        30.3158   25.6401   -3.5287 S.3       12 UNK        -0.2608 
     17 C17        30.1661   27.0448   -2.3707 C.3       12 UNK        -0.0989 
     18 CA         28.7591   27.6956   -2.3925 C.3       5 UNK         0.0716 
     19 N          27.6495   26.7932   -2.0481 N.am      5 UNK        -0.4135 
     20 C          27.4658   26.1177   -0.9056 C.2       4 UNK         0.5031 
     21 O          28.2870   26.0716    0.0132 O.2       4 UNK        -0.5229 
     22 CA         26.1148   25.4022   -0.7510 C.3       4 UNK         0.0329 
     23 CB         26.2274   23.8887   -0.9914 C.3       4 UNK        -0.2001 
     24 N          25.5733   25.6562    0.5841 N.am      4 UNK        -0.4303 
     25 C          24.9328   26.7860    0.9180 C.2       3 UNK         0.5044 
     26 O          24.6303   27.6608    0.1050 O.2       3 UNK        -0.5152 
     27 CA         24.5496   26.9880    2.3950 C.3       3 UNK         0.0319 
     28 CB         23.0751   26.6173    2.6227 C.3       3 UNK        -0.2001 
     29 N          25.3818   26.2331    3.3326 N.am      3 UNK        -0.4354 
     30 C          26.6612   26.5075    3.6199 C.2       2 UNK         0.4964 
     31 O          27.2948   27.4444    3.1343 O.2       2 UNK        -0.5047 
     32 CA         27.3630   25.5918    4.6351 C.3       2 UNK         0.0288 
     33 CB         26.4034   24.7551    5.5136 C.3       2 UNK        -0.2113 
     34 N          28.3531   24.7345    3.9815 N.am      2 UNK        -0.4145 
     35 C          28.1427   23.8021    3.0375 C.2       1 UNK         0.5006 
     36 O          27.0342   23.5659    2.5502 O.2       1 UNK        -0.5103 
     37 C          28.7137   28.9931   -1.5564 C.2       5 UNK         0.5055 
     38 O          28.5206   30.0645   -2.1326 O.2       5 UNK        -0.5220 
     39 N          28.8513   28.8636   -0.2275 N.am      6 UNK        -0.4450 
     40 CA         28.6978   29.8997    0.8016 C.3       6 UNK         0.0367 
     41 CB         27.2045   30.2404    0.9840 C.3       6 UNK        -0.1929 
     42 C          29.5665   31.1527    0.5719 C.2       6 UNK         0.5070 
     43 O          29.0642   32.2762    0.6413 O.2       6 UNK        -0.5237 
     44 N          30.8641   30.9441    0.3068 N.am      7 UNK        -0.4739 
     45 CA         31.8487   32.0179    0.1073 C.3       7 UNK         0.0276 
     46 CB         33.1204   31.4290   -0.5250 C.3       7 UNK        -0.1927 
     47 C          32.1941   32.7855    1.4000 C.2       7 UNK         0.5013 
     48 O          32.6996   33.9061    1.3248 O.2       7 UNK        -0.5193 
     49 N          31.9117   32.1710    2.5517 N.am      8 UNK        -0.4253 
     50 CA         32.0658   32.6895    3.9045 C.3       8 UNK         0.0242 
     51 CB         33.5390   32.5916    4.3447 C.3       8 UNK        -0.2000 
     52 C          31.1592   31.8511    4.8136 C.2       8 UNK         0.4948 
     53 O          30.7333   30.7654    4.4071 O.2       8 UNK        -0.5275 
     54 N          30.9103   32.3343    6.0377 N.am      9 UNK        -0.4246 
     55 CA         30.0659   31.6655    7.0375 C.3       9 UNK         0.0261 
     56 CB         29.8749   32.5912    8.2501 C.3       9 UNK        -0.1959 
     57 C          30.5916   30.2884    7.4867 C.2       9 UNK         0.5033 
     58 O          29.7882   29.3962    7.7606 O.2       9 UNK        -0.5390 
     59 N          31.9225   30.1358    7.5387 N.am      10 UNK        -0.4215 
     60 CA         32.5996   28.8673    7.8269 C.3       10 UNK         0.0240 
     61 CB         34.0272   29.1582    8.3189 C.3       10 UNK        -0.1982 
     62 C          32.6347   27.9176    6.6146 C.2       10 UNK         0.4970 
     63 O          32.7249   26.7042    6.8043 O.2       10 UNK        -0.4916 
     64 N          32.5819   28.4828    5.4023 N.am      11 UNK        -0.4279 
     65 CA         32.5308   27.7547    4.1308 C.3       11 UNK         0.1003 
     66 C          31.1050   27.1993    3.8660 C.2       11 UNK         0.5709 
     67 N          30.0767   28.0364    3.9234 N.am      11 UNK        -0.7358 
     68 O          30.9419   26.0062    3.6225 O.2       11 UNK        -0.4999 
     69 C69        33.1161   28.6324    2.9832 C.3       12 UNK        -0.0954 
     70 S70        32.6739   28.1579    1.2787 S.3       12 UNK        -0.2268 
     71 C71        34.0299   27.0245    0.8605 C.3       12 UNK         0.0203 
     72 H72        32.9128   22.2112    5.2195 H         1 UNK         0.0888 
     73 H73        32.4664   23.8943    4.9266 H         1 UNK         0.0888 
     74 H74        31.8214   23.0451    6.3303 H         1 UNK         0.0888 
     75 H75        30.9892   24.0922    3.2814 H         1 UNK         0.3017 
     76 H76        29.0363   21.9190    2.6940 H         1 UNK         0.0873 
     77 H77        28.8080   23.3106    0.4968 H         1 UNK         0.0745 
     78 H78        30.2599   24.1272    0.9666 H         1 UNK         0.0745 
     79 H79        32.6099   22.2946    1.6112 H         1 UNK         0.0705 
     80 H80        32.9842   21.4921    0.1062 H         1 UNK         0.0705 
     81 H81        33.4586   24.4901    1.6723 H         1 UNK         0.1334 
     82 H82        33.3453   27.0431   -1.7650 H         1 UNK         0.1417 
     83 H83        31.8870   23.0182   -2.0389 H         1 UNK         0.1562 
     84 H84        32.3405   24.4636   -4.1168 H         1 UNK         0.0748 
     85 H85        32.6426   26.1721   -3.9114 H         1 UNK         0.0748 
     86 H86        30.9255   27.7829   -2.6365 H         1 UNK         0.0940 
     87 H87        30.4154   26.6987   -1.3662 H         1 UNK         0.0940 
     88 H88        28.5680   27.9969   -3.4241 H         1 UNK         0.0703 
     89 H89        26.9050   26.7697   -2.7302 H         1 UNK         0.3081 
     90 H90        25.4234   25.8002   -1.4972 H         1 UNK         0.0719 
     91 H91        26.7209   23.3790   -0.1666 H         1 UNK         0.0809 
     92 H92        25.2409   23.4393   -1.1053 H         1 UNK         0.0809 
     93 H93        26.7897   23.6716   -1.9007 H         1 UNK         0.0809 
     94 H94        25.8587   25.0189    1.3185 H         1 UNK         0.2990 
     95 H95        24.6718   28.0501    2.6185 H         1 UNK         0.0690 
     96 H96        22.7638   26.8342    3.6448 H         1 UNK         0.0788 
     97 H97        22.8902   25.5595    2.4309 H         1 UNK         0.0788 
     98 H98        22.4226   27.1874    1.9596 H         1 UNK         0.0788 
     99 H99        24.9598   25.4267    3.7702 H         1 UNK         0.2993 
    100 H100       27.9206   26.2525    5.3013 H         1 UNK         0.0949 
    101 H101       26.9559   24.2146    6.2824 H         1 UNK         0.0767 
    102 H102       25.6847   25.3938    6.0291 H         1 UNK         0.0767 
    103 H103       25.8418   24.0180    4.9389 H         1 UNK         0.0767 
    104 H104       29.3188   24.9366    4.2145 H         1 UNK         0.3013 
    105 H105       28.9444   27.9122    0.1225 H         1 UNK         0.3121 
    106 H106       29.0464   29.4561    1.7349 H         1 UNK         0.0774 
    107 H107       27.0589   30.9351    1.8121 H         1 UNK         0.0815 
    108 H108       26.7818   30.6997    0.0899 H         1 UNK         0.0815 
    109 H109       26.6228   29.3476    1.2097 H         1 UNK         0.0815 
    110 H110       31.2078   29.9933    0.2722 H         1 UNK         0.2987 
    111 H111       31.4229   32.7395   -0.5934 H         1 UNK         0.0949 
    112 H112       33.6271   30.7393    0.1504 H         1 UNK         0.0806 
    113 H113       32.8973   30.8951   -1.4488 H         1 UNK         0.0806 
    114 H114       33.8315   32.2185   -0.7717 H         1 UNK         0.0806 
    115 H115       31.4420   31.2743    2.5187 H         1 UNK         0.3010 
    116 H116       31.7304   33.7283    3.9318 H         1 UNK         0.0829 
    117 H117       34.1873   33.1747    3.6904 H         1 UNK         0.0813 
    118 H118       33.6771   32.9771    5.3554 H         1 UNK         0.0813 
    119 H119       33.8981   31.5619    4.3339 H         1 UNK         0.0813 
    120 H120       31.2986   33.2302    6.2978 H         1 UNK         0.3038 
    121 H121       29.0879   31.5010    6.5795 H         1 UNK         0.0769 
    122 H122       30.8231   32.8240    8.7362 H         1 UNK         0.0811 
    123 H123       29.2313   32.1258    8.9983 H         1 UNK         0.0811 
    124 H124       29.4040   33.5313    7.9622 H         1 UNK         0.0811 
    125 H125       32.5056   30.9336    7.3312 H         1 UNK         0.3204 
    126 H126       32.0613   28.3572    8.6289 H         1 UNK         0.0748 
    127 H127       34.0190   29.7756    9.2174 H         1 UNK         0.0771 
    128 H128       34.5493   28.2333    8.5689 H         1 UNK         0.0771 
    129 H129       34.6207   29.6727    7.5619 H         1 UNK         0.0771 
    130 H130       32.4128   29.4751    5.3431 H         1 UNK         0.2980 
    131 H131       33.1851   26.8846    4.2165 H         1 UNK         0.0545 
    132 H132       29.1425   27.7144    3.6996 H         1 UNK         0.3459 
    133 H133       30.2339   29.0188    4.1334 H         1 UNK         0.3459 
    134 H134       34.2020   28.6858    3.0726 H         1 UNK         0.0616 
    135 H135       32.7716   29.6577    3.0971 H         1 UNK         0.0616 
    136 H136       34.8006   27.5653    0.3095 H         1 UNK         0.0634 
    137 H137       34.5002   26.6450    1.7690 H         1 UNK         0.0634 
@<TRIPOS>BOND
     1    1    2 1    
     2    1   72 1    
     3    1   73 1    
     4    1   74 1    
     5    2    3 2    
     6    2    4 am   BACKBONE|DICT|INTERRES
     7    4    5 1    
     8    4   75 1    
     9    5    6 1    
    10    5   35 1    
    11    5   76 1    
    12    6    7 1    
    13    6   77 1    
    14    6   78 1    
    15    7    8 1    
    16    8    9 1    
    17    8   79 1    
    18    8   80 1    
    19    9   10 ar   
    20    9   14 ar   
    21   10   11 ar   
    22   10   81 1    
    23   11   12 ar   
    24   11   71 1    
    25   12   13 ar   
    26   12   82 1    
    27   13   14 ar   
    28   13   15 1    
    29   14   83 1    
    30   15   16 1    
    31   15   84 1    
    32   15   85 1    
    33   16   17 1    
    34   17   18 1    
    35   17   86 1    
    36   17   87 1    
    37   18   19 1    
    38   18   37 1    
    39   18   88 1    
    40   19   20 am   BACKBONE|DICT|INTERRES
    41   19   89 1    
    42   20   21 2    
    43   20   22 1    
    44   22   23 1    
    45   22   24 1    
    46   22   90 1    
    47   23   91 1    
    48   23   92 1    
    49   23   93 1    
    50   24   25 am   BACKBONE|DICT|INTERRES
    51   24   94 1    
    52   25   26 2    
    53   25   27 1    
    54   27   28 1    
    55   27   29 1    
    56   27   95 1    
    57   28   96 1    
    58   28   97 1    
    59   28   98 1    
    60   29   30 am   BACKBONE|DICT|INTERRES
    61   29   99 1    
    62   30   31 2    
    63   30   32 1    
    64   32   33 1    
    65   32   34 1    
    66   32  100 1    
    67   33  101 1    
    68   33  102 1    
    69   33  103 1    
    70   34   35 am   BACKBONE|DICT|INTERRES
    71   34  104 1    
    72   35   36 2    
    73   37   38 2    
    74   37   39 am   BACKBONE|DICT|INTERRES
    75   39   40 1    
    76   39  105 1    
    77   40   41 1    
    78   40   42 1    
    79   40  106 1    
    80   41  107 1    
    81   41  108 1    
    82   41  109 1    
    83   42   43 2    
    84   42   44 am   BACKBONE|DICT|INTERRES
    85   44   45 1    
    86   44  110 1    
    87   45   46 1    
    88   45   47 1    
    89   45  111 1    
    90   46  112 1    
    91   46  113 1    
    92   46  114 1    
    93   47   48 2    
    94   47   49 am   BACKBONE|DICT|INTERRES
    95   49   50 1    
    96   49  115 1    
    97   50   51 1    
    98   50   52 1    
    99   50  116 1    
   100   51  117 1    
   101   51  118 1    
   102   51  119 1    
   103   52   53 2    
   104   52   54 am   BACKBONE|DICT|INTERRES
   105   54   55 1    
   106   54  120 1    
   107   55   56 1    
   108   55   57 1    
   109   55  121 1    
   110   56  122 1    
   111   56  123 1    
   112   56  124 1    
   113   57   58 2    
   114   57   59 am   BACKBONE|DICT|INTERRES
   115   59   60 1    
   116   59  125 1    
   117   60   61 1    
   118   60   62 1    
   119   60  126 1    
   120   61  127 1    
   121   61  128 1    
   122   61  129 1    
   123   62   63 2    
   124   62   64 am   BACKBONE|DICT|INTERRES
   125   64   65 1    
   126   64  130 1    
   127   65   66 1    
   128   65   69 1    
   129   65  131 1    
   130   66   67 am   BACKBONE|DICT|INTERRES
   131   66   68 2    
   132   67  132 1    
   133   67  133 1    
   134   69   70 1    
   135   69  134 1    
   136   69  135 1    
   137   70   71 1    
   138   71  136 1    
   139   71  137 1    
@<TRIPOS>SUBSTRUCTURE
     1 UNK         1 GROUP             0       ****    0 ROOT    
