@<TRIPOS>MOLECULE
3R136
137   139    1
SMALL
USER_CHARGES


@<TRIPOS>ATOM
      1 CA         31.5851   25.6160    1.0825 C.3       0 UNK        -0.1979 
      2 C          30.1633   25.1236    0.8881 C.2       0 UNK         0.4864 
      3 O          29.3719   25.7718    0.2015 O.2       0 UNK        -0.5359 
      4 N          29.8332   23.9667    1.4757 N.am      1 UNK        -0.4318 
      5 CA         28.5333   23.2843    1.3789 C.3       1 UNK         0.0824 
      6 C6         28.4167   22.0487    2.3169 C.3       12 UNK        -0.0944 
      7 S7         29.9746   21.1207    2.5685 S.3       12 UNK        -0.2672 
      8 C8         30.2860   21.3780    4.3492 C.3       12 UNK         0.0333 
      9 C9         30.5870   22.8337    4.6863 C.ar      12 UNK        -0.0807 
     10 C10        31.8852   23.3365    4.5532 C.ar      12 UNK        -0.0894 
     11 C11        32.1669   24.6735    4.8596 C.ar      12 UNK        -0.0804 
     12 C12        31.1335   25.5082    5.2986 C.ar      12 UNK        -0.0824 
     13 C13        29.8349   25.0135    5.4507 C.ar      12 UNK        -0.0762 
     14 C14        29.5716   23.6741    5.1547 C.ar      12 UNK        -0.0782 
     15 C15        28.7155   25.9199    5.9473 C.3       12 UNK         0.0230 
     16 S16        27.5571   26.3673    4.6147 S.3       12 UNK        -0.2608 
     17 C17        28.6648   27.3265    3.5317 C.3       12 UNK        -0.0989 
     18 CA         27.9919   28.0557    2.3368 C.3       5 UNK         0.0716 
     19 N          27.2115   27.1770    1.4557 N.am      5 UNK        -0.4135 
     20 C          25.8918   26.9242    1.4540 C.2       4 UNK         0.5031 
     21 O          25.0938   27.3921    2.2676 O.2       4 UNK        -0.5229 
     22 CA         25.3624   25.9794    0.3517 C.3       4 UNK         0.0329 
     23 CB         23.9350   26.3509   -0.1041 C.3       4 UNK        -0.2001 
     24 N          26.2524   25.8338   -0.8095 N.am      4 UNK        -0.4303 
     25 C          26.6659   26.7911   -1.6581 C.2       3 UNK         0.5044 
     26 O          26.3148   27.9693   -1.5756 O.2       3 UNK        -0.5152 
     27 CA         27.6679   26.3764   -2.7557 C.3       3 UNK         0.0319 
     28 CB         28.7516   27.4507   -2.9627 C.3       3 UNK        -0.2001 
     29 N          28.3280   25.1132   -2.4187 N.am      3 UNK        -0.4354 
     30 C          28.1674   23.9445   -3.0559 C.2       2 UNK         0.4964 
     31 O          27.4980   23.8090   -4.0802 O.2       2 UNK        -0.5047 
     32 CA         28.8455   22.7036   -2.4354 C.3       2 UNK         0.0288 
     33 CB         30.1851   22.4195   -3.1340 C.3       2 UNK        -0.2113 
     34 N          29.0726   22.8100   -0.9890 N.am      2 UNK        -0.4145 
     35 C          28.1072   22.9483   -0.0673 C.2       1 UNK         0.5006 
     36 O          26.9062   22.8984   -0.3365 O.2       1 UNK        -0.5103 
     37 C          27.3235   29.4011    2.6943 C.2       5 UNK         0.5055 
     38 O          27.3046   29.7964    3.8609 O.2       5 UNK        -0.5220 
     39 N          26.8224   30.1093    1.6700 N.am      6 UNK        -0.4450 
     40 CA         26.1568   31.4136    1.7935 C.3       6 UNK         0.0367 
     41 CB         25.6380   31.8477    0.4134 C.3       6 UNK        -0.1929 
     42 C          27.0344   32.5207    2.4130 C.2       6 UNK         0.5070 
     43 O          26.5025   33.4261    3.0551 O.2       6 UNK        -0.5237 
     44 N          28.3581   32.4143    2.2338 N.am      7 UNK        -0.4739 
     45 CA         29.3646   33.2988    2.8291 C.3       7 UNK         0.0276 
     46 CB         30.5759   33.3686    1.8816 C.3       7 UNK        -0.1927 
     47 C          29.8076   32.8657    4.2426 C.2       7 UNK         0.5013 
     48 O          30.6896   33.5152    4.8070 O.2       7 UNK        -0.5193 
     49 N          29.2350   31.7746    4.7785 N.am      8 UNK        -0.4253 
     50 CA         29.5860   31.0769    6.0226 C.3       8 UNK         0.0242 
     51 CB         29.4348   31.9752    7.2682 C.3       8 UNK        -0.2000 
     52 C          30.9681   30.4145    5.9286 C.2       8 UNK         0.4948 
     53 O          31.0485   29.1980    5.7587 O.2       8 UNK        -0.5275 
     54 N          32.0343   31.2234    5.9455 N.am      9 UNK        -0.4246 
     55 CA         33.4278   30.8095    5.7465 C.3       9 UNK         0.0261 
     56 CB         34.3537   31.8421    6.4154 C.3       9 UNK        -0.1959 
     57 C          33.7620   30.5972    4.2539 C.2       9 UNK         0.5033 
     58 O          34.8306   31.0017    3.7913 O.2       9 UNK        -0.5390 
     59 N          32.8384   29.9632    3.5197 N.am      10 UNK        -0.4215 
     60 CA         32.8826   29.7539    2.0698 C.3       10 UNK         0.0240 
     61 CB         31.5137   29.2350    1.6047 C.3       10 UNK        -0.1982 
     62 C          34.0192   28.8313    1.5929 C.2       10 UNK         0.4970 
     63 O          34.3928   28.9010    0.4217 O.2       10 UNK        -0.4916 
     64 N          34.5576   28.0073    2.5003 N.am      11 UNK        -0.4279 
     65 CA         35.7595   27.1894    2.2775 C.3       11 UNK         0.1003 
     66 C          37.0896   28.0011    2.2979 C.2       11 UNK         0.5709 
     67 N          37.1018   29.2690    2.6980 N.am      11 UNK        -0.7358 
     68 O          38.1351   27.4686    1.9332 O.2       11 UNK        -0.4999 
     69 C69        35.8295   25.9834    3.2519 C.3       12 UNK        -0.0954 
     70 S70        34.3590   24.9099    3.1453 S.3       12 UNK        -0.2268 
     71 C71        33.5888   25.2153    4.7662 C.3       12 UNK         0.0203 
     72 H72        31.7228   25.9816    2.0990 H         1 UNK         0.0888 
     73 H73        32.2983   24.8116    0.9054 H         1 UNK         0.0888 
     74 H74        31.8132   26.4246    0.3887 H         1 UNK         0.0888 
     75 H75        30.5164   23.4828    2.0439 H         1 UNK         0.3017 
     76 H76        27.7963   24.0122    1.7258 H         1 UNK         0.0873 
     77 H77        27.6598   21.3456    1.9625 H         1 UNK         0.0745 
     78 H78        28.0367   22.3740    3.2833 H         1 UNK         0.0745 
     79 H79        29.4278   21.0217    4.9213 H         1 UNK         0.0705 
     80 H80        31.1281   20.7531    4.6504 H         1 UNK         0.0705 
     81 H81        32.6796   22.6852    4.2143 H         1 UNK         0.1334 
     82 H82        31.3405   26.5423    5.5395 H         1 UNK         0.1417 
     83 H83        28.5683   23.2931    5.2853 H         1 UNK         0.1562 
     84 H84        29.1210   26.8307    6.3918 H         1 UNK         0.0748 
     85 H85        28.1638   25.4129    6.7401 H         1 UNK         0.0748 
     86 H86        29.4090   26.6320    3.1470 H         1 UNK         0.0940 
     87 H87        29.2294   28.0328    4.1428 H         1 UNK         0.0940 
     88 H88        28.8175   28.3604    1.6941 H         1 UNK         0.0703 
     89 H89        27.7750   26.6986    0.7583 H         1 UNK         0.3081 
     90 H90        25.3112   24.9916    0.8118 H         1 UNK         0.0719 
     91 H91        23.5709   25.6639   -0.8679 H         1 UNK         0.0809 
     92 H92        23.8906   27.3613   -0.5117 H         1 UNK         0.0809 
     93 H93        23.2319   26.3063    0.7286 H         1 UNK         0.0809 
     94 H94        26.5928   24.8915   -0.9638 H         1 UNK         0.2990 
     95 H95        27.1000   26.2775   -3.6827 H         1 UNK         0.0690 
     96 H96        29.4598   27.1539   -3.7365 H         1 UNK         0.0788 
     97 H97        29.3143   27.6344   -2.0462 H         1 UNK         0.0788 
     98 H98        28.3134   28.3996   -3.2749 H         1 UNK         0.0788 
     99 H99        28.8800   25.1389   -1.5652 H         1 UNK         0.2993 
    100 H100       28.1806   21.8538   -2.6045 H         1 UNK         0.0949 
    101 H101       30.0475   22.3055   -4.2104 H         1 UNK         0.0767 
    102 H102       30.9001   23.2291   -2.9807 H         1 UNK         0.0767 
    103 H103       30.6364   21.4970   -2.7680 H         1 UNK         0.0767 
    104 H104       30.0328   22.8575   -0.6805 H         1 UNK         0.3013 
    105 H105       26.8577   29.7049    0.7438 H         1 UNK         0.3121 
    106 H106       25.2978   31.2769    2.4538 H         1 UNK         0.0774 
    107 H107       25.1089   32.7997    0.4770 H         1 UNK         0.0815 
    108 H108       26.4511   31.9740   -0.3026 H         1 UNK         0.0815 
    109 H109       24.9394   31.1178    0.0037 H         1 UNK         0.0815 
    110 H110       28.7003   31.6459    1.6759 H         1 UNK         0.2987 
    111 H111       28.9487   34.3047    2.9207 H         1 UNK         0.0949 
    112 H112       31.0709   32.4026    1.7831 H         1 UNK         0.0806 
    113 H113       30.2827   33.7002    0.8853 H         1 UNK         0.0806 
    114 H114       31.3202   34.0772    2.2476 H         1 UNK         0.0806 
    115 H115       28.5124   31.3057    4.2394 H         1 UNK         0.3010 
    116 H116       28.8614   30.2667    6.1226 H         1 UNK         0.0829 
    117 H117       28.4194   32.3632    7.3493 H         1 UNK         0.0813 
    118 H118       29.6376   31.4097    8.1785 H         1 UNK         0.0813 
    119 H119       30.1145   32.8271    7.2609 H         1 UNK         0.0813 
    120 H120       31.8499   32.2214    5.9395 H         1 UNK         0.3038 
    121 H121       33.5824   29.8509    6.2462 H         1 UNK         0.0769 
    122 H122       35.3983   31.5350    6.3487 H         1 UNK         0.0811 
    123 H123       34.1200   31.9578    7.4738 H         1 UNK         0.0811 
    124 H124       34.2699   32.8220    5.9435 H         1 UNK         0.0811 
    125 H125       32.0236   29.6178    4.0158 H         1 UNK         0.3204 
    126 H126       33.0536   30.7264    1.6035 H         1 UNK         0.0748 
    127 H127       31.5066   29.0405    0.5311 H         1 UNK         0.0771 
    128 H128       31.2474   28.3083    2.1110 H         1 UNK         0.0771 
    129 H129       30.7282   29.9627    1.8061 H         1 UNK         0.0771 
    130 H130       34.1929   28.0183    3.4392 H         1 UNK         0.2980 
    131 H131       35.6866   26.7776    1.2690 H         1 UNK         0.0545 
    132 H132       36.2559   29.7383    3.0007 H         1 UNK         0.3459 
    133 H133       37.9750   29.7714    2.6971 H         1 UNK         0.3459 
    134 H134       35.9660   26.3265    4.2790 H         1 UNK         0.0616 
    135 H135       36.6974   25.3617    3.0244 H         1 UNK         0.0616 
    136 H136       34.1983   24.7520    5.5431 H         1 UNK         0.0634 
    137 H137       33.5966   26.2886    4.9619 H         1 UNK         0.0634 
@<TRIPOS>BOND
     1    1    2 1    
     2    1   72 1    
     3    1   73 1    
     4    1   74 1    
     5    2    3 2    
     6    2    4 am   BACKBONE|DICT|INTERRES
     7    4    5 1    
     8    4   75 1    
     9    5    6 1    
    10    5   35 1    
    11    5   76 1    
    12    6    7 1    
    13    6   77 1    
    14    6   78 1    
    15    7    8 1    
    16    8    9 1    
    17    8   79 1    
    18    8   80 1    
    19    9   10 ar   
    20    9   14 ar   
    21   10   11 ar   
    22   10   81 1    
    23   11   12 ar   
    24   11   71 1    
    25   12   13 ar   
    26   12   82 1    
    27   13   14 ar   
    28   13   15 1    
    29   14   83 1    
    30   15   16 1    
    31   15   84 1    
    32   15   85 1    
    33   16   17 1    
    34   17   18 1    
    35   17   86 1    
    36   17   87 1    
    37   18   19 1    
    38   18   37 1    
    39   18   88 1    
    40   19   20 am   BACKBONE|DICT|INTERRES
    41   19   89 1    
    42   20   21 2    
    43   20   22 1    
    44   22   23 1    
    45   22   24 1    
    46   22   90 1    
    47   23   91 1    
    48   23   92 1    
    49   23   93 1    
    50   24   25 am   BACKBONE|DICT|INTERRES
    51   24   94 1    
    52   25   26 2    
    53   25   27 1    
    54   27   28 1    
    55   27   29 1    
    56   27   95 1    
    57   28   96 1    
    58   28   97 1    
    59   28   98 1    
    60   29   30 am   BACKBONE|DICT|INTERRES
    61   29   99 1    
    62   30   31 2    
    63   30   32 1    
    64   32   33 1    
    65   32   34 1    
    66   32  100 1    
    67   33  101 1    
    68   33  102 1    
    69   33  103 1    
    70   34   35 am   BACKBONE|DICT|INTERRES
    71   34  104 1    
    72   35   36 2    
    73   37   38 2    
    74   37   39 am   BACKBONE|DICT|INTERRES
    75   39   40 1    
    76   39  105 1    
    77   40   41 1    
    78   40   42 1    
    79   40  106 1    
    80   41  107 1    
    81   41  108 1    
    82   41  109 1    
    83   42   43 2    
    84   42   44 am   BACKBONE|DICT|INTERRES
    85   44   45 1    
    86   44  110 1    
    87   45   46 1    
    88   45   47 1    
    89   45  111 1    
    90   46  112 1    
    91   46  113 1    
    92   46  114 1    
    93   47   48 2    
    94   47   49 am   BACKBONE|DICT|INTERRES
    95   49   50 1    
    96   49  115 1    
    97   50   51 1    
    98   50   52 1    
    99   50  116 1    
   100   51  117 1    
   101   51  118 1    
   102   51  119 1    
   103   52   53 2    
   104   52   54 am   BACKBONE|DICT|INTERRES
   105   54   55 1    
   106   54  120 1    
   107   55   56 1    
   108   55   57 1    
   109   55  121 1    
   110   56  122 1    
   111   56  123 1    
   112   56  124 1    
   113   57   58 2    
   114   57   59 am   BACKBONE|DICT|INTERRES
   115   59   60 1    
   116   59  125 1    
   117   60   61 1    
   118   60   62 1    
   119   60  126 1    
   120   61  127 1    
   121   61  128 1    
   122   61  129 1    
   123   62   63 2    
   124   62   64 am   BACKBONE|DICT|INTERRES
   125   64   65 1    
   126   64  130 1    
   127   65   66 1    
   128   65   69 1    
   129   65  131 1    
   130   66   67 am   BACKBONE|DICT|INTERRES
   131   66   68 2    
   132   67  132 1    
   133   67  133 1    
   134   69   70 1    
   135   69  134 1    
   136   69  135 1    
   137   70   71 1    
   138   71  136 1    
   139   71  137 1    
@<TRIPOS>SUBSTRUCTURE
     1 UNK         1 GROUP             0       ****    0 ROOT    
