@<TRIPOS>MOLECULE
3R136
137   139    1
SMALL
USER_CHARGES


@<TRIPOS>ATOM
      1 CA         26.0858   22.6680   -0.5074 C.3       0 UNK        -0.1979 
      2 C          27.1001   23.5479    0.2060 C.2       0 UNK         0.4864 
      3 O          27.1688   24.7466   -0.0733 O.2       0 UNK        -0.5359 
      4 N          27.8839   22.9631    1.1200 N.am      1 UNK        -0.4318 
      5 CA         28.8975   23.6383    1.9369 C.3       1 UNK         0.0824 
      6 C6         29.6778   22.6357    2.8227 C.3       12 UNK        -0.0944 
      7 S7         30.5532   21.3745    1.8400 S.3       12 UNK        -0.2672 
      8 C8         32.2875   21.8778    2.0671 C.3       12 UNK         0.0333 
      9 C9         32.5804   23.2383    1.4495 C.ar      12 UNK        -0.0807 
     10 C10        32.9330   24.3231    2.2591 C.ar      12 UNK        -0.0894 
     11 C11        33.2580   25.5564    1.6868 C.ar      12 UNK        -0.0804 
     12 C12        33.2125   25.7047    0.2974 C.ar      12 UNK        -0.0824 
     13 C13        32.8421   24.6331   -0.5220 C.ar      12 UNK        -0.0762 
     14 C14        32.5324   23.4013    0.0618 C.ar      12 UNK        -0.0782 
     15 C15        32.8136   24.7835   -2.0392 C.3       12 UNK         0.0230 
     16 S16        31.8609   26.2304   -2.6040 S.3       12 UNK        -0.2608 
     17 C17        30.1767   25.8057   -2.0479 C.3       12 UNK        -0.0989 
     18 CA         29.2448   27.0398   -2.0740 C.3       5 UNK         0.0716 
     19 N          27.8422   26.6444   -2.0420 N.am      5 UNK        -0.4135 
     20 C          26.8574   27.2444   -2.7215 C.2       4 UNK         0.5031 
     21 O          27.0329   28.1175   -3.5723 O.2       4 UNK        -0.5229 
     22 CA         25.4282   26.8142   -2.3638 C.3       4 UNK         0.0329 
     23 CB         25.0768   25.4739   -3.0298 C.3       4 UNK        -0.2001 
     24 N          25.2721   26.7013   -0.9133 N.am      4 UNK        -0.4303 
     25 C          25.0048   27.7303   -0.1003 C.2       3 UNK         0.5044 
     26 O          24.7839   28.8769   -0.4890 O.2       3 UNK        -0.5152 
     27 CA         25.0022   27.4325    1.4014 C.3       3 UNK         0.0319 
     28 CB         24.1183   26.2239    1.7665 C.3       3 UNK        -0.2001 
     29 N          26.3700   27.2142    1.8651 N.am      3 UNK        -0.4354 
     30 C          26.8281   27.5478    3.0789 C.2       2 UNK         0.4964 
     31 O          26.1497   28.1364    3.9222 O.2       2 UNK        -0.5047 
     32 CA         28.2883   27.1682    3.4049 C.3       2 UNK         0.0288 
     33 CB         28.5516   27.0434    4.9222 C.3       2 UNK        -0.2113 
     34 N          28.7499   25.9666    2.6975 N.am      2 UNK        -0.4145 
     35 C          28.2560   24.7250    2.8200 C.2       1 UNK         0.5006 
     36 O          27.3406   24.4100    3.5850 O.2       1 UNK        -0.5103 
     37 C          29.4891   27.9673   -0.8724 C.2       5 UNK         0.5055 
     38 O          29.0004   27.6783    0.2243 O.2       5 UNK        -0.5220 
     39 N          30.2255   29.0629   -1.1022 N.am      6 UNK        -0.4450 
     40 CA         30.6300   30.1217   -0.1629 C.3       6 UNK         0.0367 
     41 CB         31.5015   29.5573    0.9753 C.3       6 UNK        -0.1929 
     42 C          29.4861   30.9875    0.4001 C.2       6 UNK         0.5070 
     43 O          29.6798   32.1925    0.5576 O.2       6 UNK        -0.5237 
     44 N          28.3346   30.3719    0.7017 N.am      7 UNK        -0.4739 
     45 CA         27.1131   30.9571    1.2790 C.3       7 UNK         0.0276 
     46 CB         26.4953   32.0024    0.3273 C.3       7 UNK        -0.1927 
     47 C          27.2803   31.4941    2.7168 C.2       7 UNK         0.5013 
     48 O          26.3988   32.1985    3.2113 O.2       7 UNK        -0.5193 
     49 N          28.3884   31.1335    3.3697 N.am      8 UNK        -0.4253 
     50 CA         28.7504   31.4539    4.7428 C.3       8 UNK         0.0242 
     51 CB         29.2904   32.8932    4.8289 C.3       8 UNK        -0.2000 
     52 C          29.8171   30.4435    5.1705 C.2       8 UNK         0.4948 
     53 O          30.4963   29.8738    4.3099 O.2       8 UNK        -0.5275 
     54 N          29.9751   30.2480    6.4850 N.am      9 UNK        -0.4246 
     55 CA         30.9099   29.2952    7.0987 C.3       9 UNK         0.0261 
     56 CB         30.4403   28.9899    8.5333 C.3       9 UNK        -0.1959 
     57 C          32.3849   29.7498    7.0415 C.2       9 UNK         0.5033 
     58 O          33.1002   29.6585    8.0413 O.2       9 UNK        -0.5390 
     59 N          32.8248   30.2142    5.8651 N.am      10 UNK        -0.4215 
     60 CA         34.1752   30.7104    5.5810 C.3       10 UNK         0.0240 
     61 CB         34.2021   31.2961    4.1595 C.3       10 UNK        -0.1982 
     62 C          35.2729   29.6442    5.7436 C.2       10 UNK         0.4970 
     63 O          36.4099   29.9911    6.0653 O.2       10 UNK        -0.4916 
     64 N          34.9050   28.3760    5.5299 N.am      11 UNK        -0.4279 
     65 CA         35.7663   27.1994    5.7127 C.3       11 UNK         0.1003 
     66 C          35.8383   26.6957    7.1850 C.2       11 UNK         0.5709 
     67 N          35.1301   27.2922    8.1389 N.am      11 UNK        -0.7358 
     68 O          36.5647   25.7474    7.4726 O.2       11 UNK        -0.4999 
     69 C69        35.3846   26.0590    4.7300 C.3       12 UNK        -0.0954 
     70 S70        35.4488   26.6087    2.9893 S.3       12 UNK        -0.2268 
     71 C71        33.6833   26.7244    2.5619 C.3       12 UNK         0.0203 
     72 H72        25.0969   23.1234   -0.4663 H         1 UNK         0.0888 
     73 H73        26.3652   22.5479   -1.5535 H         1 UNK         0.0888 
     74 H74        26.0200   21.6776   -0.0575 H         1 UNK         0.0888 
     75 H75        27.7781   21.9759    1.3033 H         1 UNK         0.3017 
     76 H76        29.6026   24.1154    1.2522 H         1 UNK         0.0873 
     77 H77        30.3954   23.1599    3.4569 H         1 UNK         0.0745 
     78 H78        29.0002   22.1177    3.5046 H         1 UNK         0.0745 
     79 H79        32.9334   21.1308    1.6035 H         1 UNK         0.0705 
     80 H80        32.5281   21.8693    3.1314 H         1 UNK         0.0705 
     81 H81        32.9808   24.2035    3.3328 H         1 UNK         0.1334 
     82 H82        33.4725   26.6543   -0.1502 H         1 UNK         0.1417 
     83 H83        32.2617   22.5598   -0.5619 H         1 UNK         0.1562 
     84 H84        32.4028   23.8904   -2.5128 H         1 UNK         0.0748 
     85 H85        33.8390   24.8782   -2.3987 H         1 UNK         0.0748 
     86 H86        30.2018   25.3493   -1.0561 H         1 UNK         0.0940 
     87 H87        29.7974   25.0365   -2.7228 H         1 UNK         0.0940 
     88 H88        29.4338   27.5947   -2.9958 H         1 UNK         0.0703 
     89 H89        27.5975   25.9670   -1.3212 H         1 UNK         0.3081 
     90 H90        24.7382   27.5716   -2.7426 H         1 UNK         0.0719 
     91 H91        25.1423   25.5521   -4.1158 H         1 UNK         0.0809 
     92 H92        25.7521   24.6761   -2.7207 H         1 UNK         0.0809 
     93 H93        24.0596   25.1656   -2.7880 H         1 UNK         0.0809 
     94 H94        25.5399   25.8158   -0.4983 H         1 UNK         0.2990 
     95 H95        24.5870   28.3151    1.8932 H         1 UNK         0.0690 
     96 H96        24.0090   26.1339    2.8475 H         1 UNK         0.0788 
     97 H97        24.5346   25.2847    1.4009 H         1 UNK         0.0788 
     98 H98        23.1165   26.3285    1.3478 H         1 UNK         0.0788 
     99 H99        27.0077   26.7713    1.2123 H         1 UNK         0.2993 
    100 H100       28.8984   27.9918    3.0319 H         1 UNK         0.0949 
    101 H101       28.3052   27.9678    5.4436 H         1 UNK         0.0767 
    102 H102       27.9525   26.2546    5.3772 H         1 UNK         0.0767 
    103 H103       29.6006   26.8267    5.1219 H         1 UNK         0.0767 
    104 H104       29.4435   26.1407    1.9811 H         1 UNK         0.3013 
    105 H105       30.5523   29.2019   -2.0489 H         1 UNK         0.3121 
    106 H106       31.2600   30.7971   -0.7442 H         1 UNK         0.0774 
    107 H107       30.9624   28.8398    1.5944 H         1 UNK         0.0815 
    108 H108       32.3843   29.0615    0.5741 H         1 UNK         0.0815 
    109 H109       31.8481   30.3537    1.6356 H         1 UNK         0.0815 
    110 H110       28.3217   29.3644    0.5567 H         1 UNK         0.2987 
    111 H111       26.4000   30.1373    1.3609 H         1 UNK         0.0949 
    112 H112       26.3536   31.5903   -0.6719 H         1 UNK         0.0806 
    113 H113       25.5156   32.3239    0.6826 H         1 UNK         0.0806 
    114 H114       27.1172   32.8936    0.2413 H         1 UNK         0.0806 
    115 H115       29.0648   30.5421    2.9028 H         1 UNK         0.3010 
    116 H116       27.8726   31.3388    5.3821 H         1 UNK         0.0829 
    117 H117       28.5364   33.6198    4.5258 H         1 UNK         0.0813 
    118 H118       29.5872   33.1435    5.8481 H         1 UNK         0.0813 
    119 H119       30.1632   33.0328    4.1892 H         1 UNK         0.0813 
    120 H120       29.4108   30.7896    7.1245 H         1 UNK         0.3038 
    121 H121       30.8586   28.3616    6.5354 H         1 UNK         0.0769 
    122 H122       31.0669   28.2273    8.9982 H         1 UNK         0.0811 
    123 H123       29.4175   28.6125    8.5449 H         1 UNK         0.0811 
    124 H124       30.4804   29.8763    9.1676 H         1 UNK         0.0811 
    125 H125       32.1555   30.2134    5.0976 H         1 UNK         0.3204 
    126 H126       34.3894   31.5121    6.2908 H         1 UNK         0.0748 
    127 H127       35.1859   31.7040    3.9230 H         1 UNK         0.0771 
    128 H128       33.9725   30.5400    3.4071 H         1 UNK         0.0771 
    129 H129       33.4815   32.1070    4.0502 H         1 UNK         0.0771 
    130 H130       33.9473   28.1908    5.2777 H         1 UNK         0.2980 
    131 H131       36.7874   27.4966    5.4664 H         1 UNK         0.0545 
    132 H132       35.2003   26.9494    9.0837 H         1 UNK         0.3459 
    133 H133       34.5415   28.0915    7.9396 H         1 UNK         0.3459 
    134 H134       36.0801   25.2238    4.8293 H         1 UNK         0.0616 
    135 H135       34.3977   25.6573    4.9646 H         1 UNK         0.0616 
    136 H136       33.0617   26.7746    3.4566 H         1 UNK         0.0634 
    137 H137       33.5252   27.6659    2.0371 H         1 UNK         0.0634 
@<TRIPOS>BOND
     1    1    2 1    
     2    1   72 1    
     3    1   73 1    
     4    1   74 1    
     5    2    3 2    
     6    2    4 am   BACKBONE|DICT|INTERRES
     7    4    5 1    
     8    4   75 1    
     9    5    6 1    
    10    5   35 1    
    11    5   76 1    
    12    6    7 1    
    13    6   77 1    
    14    6   78 1    
    15    7    8 1    
    16    8    9 1    
    17    8   79 1    
    18    8   80 1    
    19    9   10 ar   
    20    9   14 ar   
    21   10   11 ar   
    22   10   81 1    
    23   11   12 ar   
    24   11   71 1    
    25   12   13 ar   
    26   12   82 1    
    27   13   14 ar   
    28   13   15 1    
    29   14   83 1    
    30   15   16 1    
    31   15   84 1    
    32   15   85 1    
    33   16   17 1    
    34   17   18 1    
    35   17   86 1    
    36   17   87 1    
    37   18   19 1    
    38   18   37 1    
    39   18   88 1    
    40   19   20 am   BACKBONE|DICT|INTERRES
    41   19   89 1    
    42   20   21 2    
    43   20   22 1    
    44   22   23 1    
    45   22   24 1    
    46   22   90 1    
    47   23   91 1    
    48   23   92 1    
    49   23   93 1    
    50   24   25 am   BACKBONE|DICT|INTERRES
    51   24   94 1    
    52   25   26 2    
    53   25   27 1    
    54   27   28 1    
    55   27   29 1    
    56   27   95 1    
    57   28   96 1    
    58   28   97 1    
    59   28   98 1    
    60   29   30 am   BACKBONE|DICT|INTERRES
    61   29   99 1    
    62   30   31 2    
    63   30   32 1    
    64   32   33 1    
    65   32   34 1    
    66   32  100 1    
    67   33  101 1    
    68   33  102 1    
    69   33  103 1    
    70   34   35 am   BACKBONE|DICT|INTERRES
    71   34  104 1    
    72   35   36 2    
    73   37   38 2    
    74   37   39 am   BACKBONE|DICT|INTERRES
    75   39   40 1    
    76   39  105 1    
    77   40   41 1    
    78   40   42 1    
    79   40  106 1    
    80   41  107 1    
    81   41  108 1    
    82   41  109 1    
    83   42   43 2    
    84   42   44 am   BACKBONE|DICT|INTERRES
    85   44   45 1    
    86   44  110 1    
    87   45   46 1    
    88   45   47 1    
    89   45  111 1    
    90   46  112 1    
    91   46  113 1    
    92   46  114 1    
    93   47   48 2    
    94   47   49 am   BACKBONE|DICT|INTERRES
    95   49   50 1    
    96   49  115 1    
    97   50   51 1    
    98   50   52 1    
    99   50  116 1    
   100   51  117 1    
   101   51  118 1    
   102   51  119 1    
   103   52   53 2    
   104   52   54 am   BACKBONE|DICT|INTERRES
   105   54   55 1    
   106   54  120 1    
   107   55   56 1    
   108   55   57 1    
   109   55  121 1    
   110   56  122 1    
   111   56  123 1    
   112   56  124 1    
   113   57   58 2    
   114   57   59 am   BACKBONE|DICT|INTERRES
   115   59   60 1    
   116   59  125 1    
   117   60   61 1    
   118   60   62 1    
   119   60  126 1    
   120   61  127 1    
   121   61  128 1    
   122   61  129 1    
   123   62   63 2    
   124   62   64 am   BACKBONE|DICT|INTERRES
   125   64   65 1    
   126   64  130 1    
   127   65   66 1    
   128   65   69 1    
   129   65  131 1    
   130   66   67 am   BACKBONE|DICT|INTERRES
   131   66   68 2    
   132   67  132 1    
   133   67  133 1    
   134   69   70 1    
   135   69  134 1    
   136   69  135 1    
   137   70   71 1    
   138   71  136 1    
   139   71  137 1    
@<TRIPOS>SUBSTRUCTURE
     1 UNK         1 GROUP             0       ****    0 ROOT    
