@<TRIPOS>MOLECULE
3R136
137   139    1
SMALL
USER_CHARGES


@<TRIPOS>ATOM
      1 CA         31.6235   23.0062    5.7508 C.3       0 UNK        -0.1979 
      2 C          30.8216   22.4311    4.5916 C.2       0 UNK         0.4864 
      3 O          30.7618   21.2085    4.4487 O.2       0 UNK        -0.5359 
      4 N          30.2037   23.2946    3.7778 N.am      1 UNK        -0.4318 
      5 CA         29.3431   22.9273    2.6487 C.3       1 UNK         0.0824 
      6 C6         29.8839   23.4795    1.3045 C.3       12 UNK        -0.0944 
      7 S7         31.3209   22.5215    0.7262 S.3       12 UNK        -0.2672 
      8 C8         31.9605   23.5774   -0.6202 C.3       12 UNK         0.0333 
      9 C9         32.5864   24.8910   -0.1536 C.ar      12 UNK        -0.0807 
     10 C10        33.3186   24.9639    1.0361 C.ar      12 UNK        -0.0894 
     11 C11        33.9045   26.1639    1.4482 C.ar      12 UNK        -0.0804 
     12 C12        33.7776   27.2977    0.6383 C.ar      12 UNK        -0.0824 
     13 C13        33.0814   27.2384   -0.5746 C.ar      12 UNK        -0.0762 
     14 C14        32.4818   26.0315   -0.9572 C.ar      12 UNK        -0.0782 
     15 C15        33.0786   28.4552   -1.5006 C.3       12 UNK         0.0230 
     16 S16        31.5068   28.7403   -2.3840 S.3       12 UNK        -0.2608 
     17 C17        30.5750   29.6977   -1.1488 C.3       12 UNK        -0.0989 
     18 CA         29.0475   29.6988   -1.4078 C.3       5 UNK         0.0716 
     19 N          28.4652   28.3700   -1.2772 N.am      5 UNK        -0.4135 
     20 C          28.0237   27.5800   -2.2588 C.2       4 UNK         0.5031 
     21 O          28.0902   27.8576   -3.4570 O.2       4 UNK        -0.5229 
     22 CA         27.3997   26.2394   -1.8255 C.3       4 UNK         0.0329 
     23 CB         28.4465   25.1184   -1.9244 C.3       4 UNK        -0.2001 
     24 N          26.8454   26.2508   -0.4655 N.am      4 UNK        -0.4303 
     25 C          25.7793   26.9627   -0.0704 C.2       3 UNK         0.5044 
     26 O          25.1397   27.7012   -0.8210 O.2       3 UNK        -0.5152 
     27 CA         25.3781   26.8349    1.4150 C.3       3 UNK         0.0319 
     28 CB         23.9240   27.2798    1.6805 C.3       3 UNK        -0.2001 
     29 N          25.6248   25.5024    1.9872 N.am      3 UNK        -0.4354 
     30 C          25.0939   24.3350    1.5929 C.2       2 UNK         0.4964 
     31 O          24.3368   24.2140    0.6284 O.2       2 UNK        -0.5047 
     32 CA         25.4995   23.0938    2.4131 C.3       2 UNK         0.0288 
     33 CB         24.6915   21.8396    2.0275 C.3       2 UNK        -0.2113 
     34 N          26.9278   22.7897    2.2862 N.am      2 UNK        -0.4145 
     35 C          27.9162   23.4349    2.9204 C.2       1 UNK         0.5006 
     36 O          27.7229   24.3997    3.6652 O.2       1 UNK        -0.5103 
     37 C          28.3383   30.5715   -0.3630 C.2       5 UNK         0.5055 
     38 O          28.0634   30.0826    0.7372 O.2       5 UNK        -0.5220 
     39 N          28.0765   31.8404   -0.7023 N.am      6 UNK        -0.4450 
     40 CA         27.4523   32.8234    0.1868 C.3       6 UNK         0.0367 
     41 CB         27.1290   34.1007   -0.6066 C.3       6 UNK        -0.1929 
     42 C          28.3617   33.1317    1.3871 C.2       6 UNK         0.5070 
     43 O          29.4402   33.6969    1.1957 O.2       6 UNK        -0.5237 
     44 N          27.9345   32.7041    2.5836 N.am      7 UNK        -0.4739 
     45 CA         28.6105   32.7713    3.8907 C.3       7 UNK         0.0276 
     46 CB         28.8763   34.2278    4.3178 C.3       7 UNK        -0.1927 
     47 C          29.8917   31.9219    3.9977 C.2       7 UNK         0.5013 
     48 O          30.0676   31.2197    4.9943 O.2       7 UNK        -0.5193 
     49 N          30.7486   31.9710    2.9695 N.am      8 UNK        -0.4253 
     50 CA         32.0367   31.2776    2.8774 C.3       8 UNK         0.0242 
     51 CB         32.7420   31.6785    1.5729 C.3       8 UNK        -0.2000 
     52 C          31.9538   29.7472    3.0004 C.2       8 UNK         0.4948 
     53 O          32.9282   29.1406    3.4408 O.2       8 UNK        -0.5275 
     54 N          30.7932   29.1560    2.6762 N.am      9 UNK        -0.4246 
     55 CA         30.5000   27.7286    2.8474 C.3       9 UNK         0.0261 
     56 CB         29.1912   27.3839    2.1265 C.3       9 UNK        -0.1959 
     57 C          30.4603   27.2446    4.3092 C.2       9 UNK         0.5033 
     58 O          30.4301   26.0334    4.5231 O.2       9 UNK        -0.5390 
     59 N          30.4848   28.1635    5.2878 N.am      10 UNK        -0.4215 
     60 CA         30.7558   27.8455    6.6934 C.3       10 UNK         0.0240 
     61 CB         30.3981   29.0573    7.5684 C.3       10 UNK        -0.1982 
     62 C          32.2194   27.4192    6.9332 C.2       10 UNK         0.4970 
     63 O          32.4787   26.6862    7.8879 O.2       10 UNK        -0.4916 
     64 N          33.1340   27.8774    6.0650 N.am      11 UNK        -0.4279 
     65 CA         34.5611   27.5203    6.0008 C.3       11 UNK         0.1003 
     66 C          35.4166   27.9524    7.2298 C.2       11 UNK         0.5709 
     67 N          34.9522   28.8736    8.0659 N.am      11 UNK        -0.7358 
     68 O          36.5342   27.4750    7.4136 O.2       11 UNK        -0.4999 
     69 C69        34.8061   26.0406    5.5782 C.3       12 UNK        -0.0954 
     70 S70        33.8001   25.5082    4.1512 S.3       12 UNK        -0.2268 
     71 C71        34.7063   26.2282    2.7453 C.3       12 UNK         0.0203 
     72 H72        31.5133   24.0868    5.8312 H         1 UNK         0.0888 
     73 H73        31.2965   22.5650    6.6916 H         1 UNK         0.0888 
     74 H74        32.6823   22.7858    5.6188 H         1 UNK         0.0888 
     75 H75        30.2351   24.2922    3.9946 H         1 UNK         0.3017 
     76 H76        29.2723   21.8401    2.5711 H         1 UNK         0.0873 
     77 H77        30.1627   24.5304    1.3986 H         1 UNK         0.0745 
     78 H78        29.1277   23.4243    0.5197 H         1 UNK         0.0745 
     79 H79        32.7200   23.0148   -1.1642 H         1 UNK         0.0705 
     80 H80        31.1531   23.7650   -1.3288 H         1 UNK         0.0705 
     81 H81        33.4349   24.0826    1.6513 H         1 UNK         0.1334 
     82 H82        34.2490   28.2226    0.9419 H         1 UNK         0.1417 
     83 H83        31.9567   25.9715   -1.9007 H         1 UNK         0.1562 
     84 H84        33.8628   28.3095   -2.2444 H         1 UNK         0.0748 
     85 H85        33.3454   29.3603   -0.9524 H         1 UNK         0.0748 
     86 H86        30.9610   30.7181   -1.1716 H         1 UNK         0.0940 
     87 H87        30.7995   29.2983   -0.1580 H         1 UNK         0.0940 
     88 H88        28.8421   30.1028   -2.4015 H         1 UNK         0.0703 
     89 H89        28.2690   28.1049   -0.3233 H         1 UNK         0.3081 
     90 H90        26.5857   26.0158   -2.5183 H         1 UNK         0.0719 
     91 H91        28.8613   25.0592   -2.9317 H         1 UNK         0.0809 
     92 H92        29.2786   25.2892   -1.2406 H         1 UNK         0.0809 
     93 H93        28.0123   24.1445   -1.6976 H         1 UNK         0.0809 
     94 H94        27.2868   25.6477    0.2114 H         1 UNK         0.2990 
     95 H95        26.0286   27.5220    1.9573 H         1 UNK         0.0690 
     96 H96        23.6731   27.2056    2.7386 H         1 UNK         0.0788 
     97 H97        23.2077   26.6760    1.1222 H         1 UNK         0.0788 
     98 H98        23.7717   28.3191    1.3862 H         1 UNK         0.0788 
     99 H99        26.2768   25.4638    2.7664 H         1 UNK         0.2993 
    100 H100       25.2799   23.3160    3.4601 H         1 UNK         0.0949 
    101 H101       24.8728   21.5417    0.9939 H         1 UNK         0.0767 
    102 H102       24.9413   20.9942    2.6691 H         1 UNK         0.0767 
    103 H103       23.6202   22.0173    2.1330 H         1 UNK         0.0767 
    104 H104       27.1644   22.0282    1.6659 H         1 UNK         0.3013 
    105 H105       28.3650   32.1754   -1.6104 H         1 UNK         0.3121 
    106 H106       26.5113   32.4037    0.5495 H         1 UNK         0.0774 
    107 H107       28.0267   34.5549   -1.0286 H         1 UNK         0.0815 
    108 H108       26.4387   33.8966   -1.4253 H         1 UNK         0.0815 
    109 H109       26.6581   34.8474    0.0343 H         1 UNK         0.0815 
    110 H110       27.0604   32.1953    2.5956 H         1 UNK         0.2987 
    111 H111       27.9047   32.3479    4.6076 H         1 UNK         0.0949 
    112 H112       27.9573   34.8139    4.3200 H         1 UNK         0.0806 
    113 H113       29.2873   34.2669    5.3275 H         1 UNK         0.0806 
    114 H114       29.5896   34.7256    3.6603 H         1 UNK         0.0806 
    115 H115       30.4963   32.5904    2.2014 H         1 UNK         0.3010 
    116 H116       32.6470   31.6267    3.7129 H         1 UNK         0.0829 
    117 H117       32.1486   31.4190    0.6981 H         1 UNK         0.0813 
    118 H118       33.7056   31.1757    1.4766 H         1 UNK         0.0813 
    119 H119       32.9331   32.7513    1.5401 H         1 UNK         0.0813 
    120 H120       30.0346   29.7363    2.3441 H         1 UNK         0.3038 
    121 H121       31.3038   27.1674    2.3661 H         1 UNK         0.0769 
    122 H122       29.3147   27.4878    1.0526 H         1 UNK         0.0811 
    123 H123       28.3711   28.0238    2.4525 H         1 UNK         0.0811 
    124 H124       28.8938   26.3533    2.3133 H         1 UNK         0.0811 
    125 H125       30.4476   29.1477    5.0424 H         1 UNK         0.3204 
    126 H126       30.1157   27.0102    6.9853 H         1 UNK         0.0748 
    127 H127       31.0090   29.9271    7.3232 H         1 UNK         0.0771 
    128 H128       29.3521   29.3395    7.4459 H         1 UNK         0.0771 
    129 H129       30.5529   28.8355    8.6252 H         1 UNK         0.0771 
    130 H130       32.8225   28.4427    5.2822 H         1 UNK         0.2980 
    131 H131       34.9511   28.1393    5.1932 H         1 UNK         0.0545 
    132 H132       35.5155   29.1564    8.8522 H         1 UNK         0.3459 
    133 H133       34.0409   29.2775    7.9233 H         1 UNK         0.3459 
    134 H134       34.5758   25.3722    6.4093 H         1 UNK         0.0616 
    135 H135       35.8577   25.8769    5.3371 H         1 UNK         0.0616 
    136 H136       34.9590   27.2627    2.9801 H         1 UNK         0.0634 
    137 H137       35.6482   25.6947    2.6137 H         1 UNK         0.0634 
@<TRIPOS>BOND
     1    1    2 1    
     2    1   72 1    
     3    1   73 1    
     4    1   74 1    
     5    2    3 2    
     6    2    4 am   BACKBONE|DICT|INTERRES
     7    4    5 1    
     8    4   75 1    
     9    5    6 1    
    10    5   35 1    
    11    5   76 1    
    12    6    7 1    
    13    6   77 1    
    14    6   78 1    
    15    7    8 1    
    16    8    9 1    
    17    8   79 1    
    18    8   80 1    
    19    9   10 ar   
    20    9   14 ar   
    21   10   11 ar   
    22   10   81 1    
    23   11   12 ar   
    24   11   71 1    
    25   12   13 ar   
    26   12   82 1    
    27   13   14 ar   
    28   13   15 1    
    29   14   83 1    
    30   15   16 1    
    31   15   84 1    
    32   15   85 1    
    33   16   17 1    
    34   17   18 1    
    35   17   86 1    
    36   17   87 1    
    37   18   19 1    
    38   18   37 1    
    39   18   88 1    
    40   19   20 am   BACKBONE|DICT|INTERRES
    41   19   89 1    
    42   20   21 2    
    43   20   22 1    
    44   22   23 1    
    45   22   24 1    
    46   22   90 1    
    47   23   91 1    
    48   23   92 1    
    49   23   93 1    
    50   24   25 am   BACKBONE|DICT|INTERRES
    51   24   94 1    
    52   25   26 2    
    53   25   27 1    
    54   27   28 1    
    55   27   29 1    
    56   27   95 1    
    57   28   96 1    
    58   28   97 1    
    59   28   98 1    
    60   29   30 am   BACKBONE|DICT|INTERRES
    61   29   99 1    
    62   30   31 2    
    63   30   32 1    
    64   32   33 1    
    65   32   34 1    
    66   32  100 1    
    67   33  101 1    
    68   33  102 1    
    69   33  103 1    
    70   34   35 am   BACKBONE|DICT|INTERRES
    71   34  104 1    
    72   35   36 2    
    73   37   38 2    
    74   37   39 am   BACKBONE|DICT|INTERRES
    75   39   40 1    
    76   39  105 1    
    77   40   41 1    
    78   40   42 1    
    79   40  106 1    
    80   41  107 1    
    81   41  108 1    
    82   41  109 1    
    83   42   43 2    
    84   42   44 am   BACKBONE|DICT|INTERRES
    85   44   45 1    
    86   44  110 1    
    87   45   46 1    
    88   45   47 1    
    89   45  111 1    
    90   46  112 1    
    91   46  113 1    
    92   46  114 1    
    93   47   48 2    
    94   47   49 am   BACKBONE|DICT|INTERRES
    95   49   50 1    
    96   49  115 1    
    97   50   51 1    
    98   50   52 1    
    99   50  116 1    
   100   51  117 1    
   101   51  118 1    
   102   51  119 1    
   103   52   53 2    
   104   52   54 am   BACKBONE|DICT|INTERRES
   105   54   55 1    
   106   54  120 1    
   107   55   56 1    
   108   55   57 1    
   109   55  121 1    
   110   56  122 1    
   111   56  123 1    
   112   56  124 1    
   113   57   58 2    
   114   57   59 am   BACKBONE|DICT|INTERRES
   115   59   60 1    
   116   59  125 1    
   117   60   61 1    
   118   60   62 1    
   119   60  126 1    
   120   61  127 1    
   121   61  128 1    
   122   61  129 1    
   123   62   63 2    
   124   62   64 am   BACKBONE|DICT|INTERRES
   125   64   65 1    
   126   64  130 1    
   127   65   66 1    
   128   65   69 1    
   129   65  131 1    
   130   66   67 am   BACKBONE|DICT|INTERRES
   131   66   68 2    
   132   67  132 1    
   133   67  133 1    
   134   69   70 1    
   135   69  134 1    
   136   69  135 1    
   137   70   71 1    
   138   71  136 1    
   139   71  137 1    
@<TRIPOS>SUBSTRUCTURE
     1 UNK         1 GROUP             0       ****    0 ROOT    
