@<TRIPOS>MOLECULE
3R136
137   139    1
SMALL
USER_CHARGES


@<TRIPOS>ATOM
      1 CA         27.2626   16.8511   -0.7712 C.3       0 UNK        -0.1979 
      2 C          28.3211   17.8020   -0.2316 C.2       0 UNK         0.4864 
      3 O          29.4983   17.6535   -0.5617 O.2       0 UNK        -0.5359 
      4 N          27.9096   18.7687    0.6005 N.am      1 UNK        -0.4318 
      5 CA         28.7649   19.8045    1.1896 C.3       1 UNK         0.0824 
      6 C6         28.0283   20.5298    2.3473 C.3       12 UNK        -0.0944 
      7 S7         29.1028   21.5662    3.3976 S.3       12 UNK        -0.2672 
      8 C8         28.9776   23.1759    2.5561 C.3       12 UNK         0.0333 
      9 C9         29.0308   24.3313    3.5402 C.ar      12 UNK        -0.0807 
     10 C10        30.2580   24.8643    3.9411 C.ar      12 UNK        -0.0894 
     11 C11        30.3069   25.9502    4.8208 C.ar      12 UNK        -0.0804 
     12 C12        29.1151   26.5121    5.2909 C.ar      12 UNK        -0.0824 
     13 C13        27.8805   25.9791    4.9021 C.ar      12 UNK        -0.0762 
     14 C14        27.8469   24.8829    4.0348 C.ar      12 UNK        -0.0782 
     15 C15        26.5788   26.5747    5.4230 C.3       12 UNK         0.0230 
     16 S16        25.5105   27.1825    4.0756 S.3       12 UNK        -0.2608 
     17 C17        26.5278   28.5297    3.3893 C.3       12 UNK        -0.0989 
     18 CA         27.2616   28.1236    2.0851 C.3       5 UNK         0.0716 
     19 N          26.3252   27.7653    1.0159 N.am      5 UNK        -0.4135 
     20 C          26.6715   27.1694   -0.1306 C.2       4 UNK         0.5031 
     21 O          27.8158   26.7888   -0.3952 O.2       4 UNK        -0.5229 
     22 CA         25.5546   26.9800   -1.1643 C.3       4 UNK         0.0329 
     23 CB         25.2573   28.2994   -1.9031 C.3       4 UNK        -0.2001 
     24 N          25.9791   25.9557   -2.1131 N.am      4 UNK        -0.4303 
     25 C          25.1872   25.2485   -2.9272 C.2       3 UNK         0.5044 
     26 O          23.9686   25.4091   -3.0080 O.2       3 UNK        -0.5152 
     27 CA         25.8639   24.1738   -3.8016 C.3       3 UNK         0.0319 
     28 CB         26.1763   24.7374   -5.1975 C.3       3 UNK        -0.2001 
     29 N          27.0933   23.6283   -3.2139 N.am      3 UNK        -0.4354 
     30 C          27.1272   22.8503   -2.1240 C.2       2 UNK         0.4964 
     31 O          26.1190   22.4627   -1.5250 O.2       2 UNK        -0.5047 
     32 CA         28.5172   22.4632   -1.6007 C.3       2 UNK         0.0288 
     33 CB         29.2578   23.7079   -1.0642 C.3       2 UNK        -0.2113 
     34 N          28.3284   21.4682   -0.5478 N.am      2 UNK        -0.4145 
     35 C          29.2720   20.7810    0.1065 C.2       1 UNK         0.5006 
     36 O          30.4801   20.8816   -0.1152 O.2       1 UNK        -0.5103 
     37 C          28.1891   29.2711    1.6416 C.2       5 UNK         0.5055 
     38 O          27.7392   30.1851    0.9456 O.2       5 UNK        -0.5220 
     39 N          29.4388   29.2375    2.1175 N.am      6 UNK        -0.4450 
     40 CA         30.4199   30.3158    1.9734 C.3       6 UNK         0.0367 
     41 CB         31.5525   29.8667    1.0340 C.3       6 UNK        -0.1929 
     42 C          30.9289   30.7487    3.3583 C.2       6 UNK         0.5070 
     43 O          32.1080   31.0850    3.5076 O.2       6 UNK        -0.5237 
     44 N          30.0285   30.7238    4.3515 N.am      7 UNK        -0.4739 
     45 CA         30.2734   31.0939    5.7452 C.3       7 UNK         0.0276 
     46 CB         28.9947   30.8534    6.5649 C.3       7 UNK        -0.1927 
     47 C          30.7454   32.5527    5.8632 C.2       7 UNK         0.5013 
     48 O          29.9948   33.4616    5.5042 O.2       7 UNK        -0.5193 
     49 N          31.9959   32.7268    6.3095 N.am      8 UNK        -0.4253 
     50 CA         32.7657   33.9737    6.4105 C.3       8 UNK         0.0242 
     51 CB         32.0563   35.0116    7.3064 C.3       8 UNK        -0.2000 
     52 C          33.1967   34.5723    5.0548 C.2       8 UNK         0.4948 
     53 O          33.8421   35.6219    5.0522 O.2       8 UNK        -0.5275 
     54 N          32.8750   33.9037    3.9387 N.am      9 UNK        -0.4246 
     55 CA         33.3018   34.2720    2.5882 C.3       9 UNK         0.0261 
     56 CB         32.1330   34.0955    1.6043 C.3       9 UNK        -0.1959 
     57 C          34.5144   33.4360    2.1554 C.2       9 UNK         0.5033 
     58 O          35.4655   33.9989    1.6109 O.2       9 UNK        -0.5390 
     59 N          34.4705   32.1219    2.4154 N.am      10 UNK        -0.4215 
     60 CA         35.5498   31.1772    2.1138 C.3       10 UNK         0.0240 
     61 CB         35.3509   30.5794    0.7089 C.3       10 UNK        -0.1982 
     62 C          35.7014   30.0649    3.1649 C.2       10 UNK         0.4970 
     63 O          36.7518   29.4211    3.1784 O.2       10 UNK        -0.4916 
     64 N          34.6946   29.8449    4.0203 N.am      11 UNK        -0.4279 
     65 CA         34.7088   28.8240    5.0766 C.3       11 UNK         0.1003 
     66 C          34.0267   29.3184    6.3803 C.2       11 UNK         0.5709 
     67 N          33.9234   28.4743    7.3977 N.am      11 UNK        -0.7358 
     68 O          33.6119   30.4696    6.4959 O.2       11 UNK        -0.4999 
     69 C69        34.2022   27.4471    4.5626 C.3       12 UNK        -0.0954 
     70 S70        32.4733   27.4411    3.9696 S.3       12 UNK        -0.2268 
     71 C71        31.6542   26.4845    5.2805 C.3       12 UNK         0.0203 
     72 H72        26.2679   17.0909   -0.3958 H         1 UNK         0.0888 
     73 H73        27.2346   16.8999   -1.8594 H         1 UNK         0.0888 
     74 H74        27.4957   15.8268   -0.4817 H         1 UNK         0.0888 
     75 H75        26.9284   18.8244    0.8341 H         1 UNK         0.3017 
     76 H76        29.6388   19.3021    1.6108 H         1 UNK         0.0873 
     77 H77        27.1806   21.1132    1.9841 H         1 UNK         0.0745 
     78 H78        27.5931   19.7822    3.0127 H         1 UNK         0.0745 
     79 H79        28.0546   23.2356    1.9780 H         1 UNK         0.0705 
     80 H80        29.7940   23.2630    1.8381 H         1 UNK         0.0705 
     81 H81        31.1780   24.4331    3.5698 H         1 UNK         0.1334 
     82 H82        29.1508   27.3520    5.9711 H         1 UNK         0.1417 
     83 H83        26.8937   24.4706    3.7321 H         1 UNK         0.1562 
     84 H84        26.7702   27.3880    6.1249 H         1 UNK         0.0748 
     85 H85        26.0389   25.8090    5.9818 H         1 UNK         0.0748 
     86 H86        27.2384   28.8522    4.1528 H         1 UNK         0.0940 
     87 H87        25.8756   29.3873    3.2107 H         1 UNK         0.0940 
     88 H88        27.8808   27.2472    2.2880 H         1 UNK         0.0703 
     89 H89        25.3695   28.0611    1.1477 H         1 UNK         0.3081 
     90 H90        24.6576   26.6343   -0.6458 H         1 UNK         0.0719 
     91 H91        24.9563   29.0830   -1.2067 H         1 UNK         0.0809 
     92 H92        26.1333   28.6620   -2.4425 H         1 UNK         0.0809 
     93 H93        24.4470   28.1815   -2.6227 H         1 UNK         0.0809 
     94 H94        26.9691   25.7467   -2.0701 H         1 UNK         0.2990 
     95 H95        25.1525   23.3532   -3.9184 H         1 UNK         0.0690 
     96 H96        26.8972   25.5548   -5.1518 H         1 UNK         0.0788 
     97 H97        25.2737   25.1257   -5.6719 H         1 UNK         0.0788 
     98 H98        26.5800   23.9679   -5.8557 H         1 UNK         0.0788 
     99 H99        27.9635   23.8978   -3.6509 H         1 UNK         0.2993 
    100 H100       29.0859   22.0089   -2.4146 H         1 UNK         0.0949 
    101 H101       28.7027   24.1881   -0.2580 H         1 UNK         0.0767 
    102 H102       30.2497   23.4615   -0.6869 H         1 UNK         0.0767 
    103 H103       29.3997   24.4550   -1.8456 H         1 UNK         0.0767 
    104 H104       27.3502   21.3031   -0.3390 H         1 UNK         0.3013 
    105 H105       29.7298   28.4550    2.6895 H         1 UNK         0.3121 
    106 H106       29.9529   31.2001    1.5351 H         1 UNK         0.0774 
    107 H107       32.2335   30.6920    0.8276 H         1 UNK         0.0815 
    108 H108       32.1377   29.0530    1.4625 H         1 UNK         0.0815 
    109 H109       31.1600   29.5281    0.0752 H         1 UNK         0.0815 
    110 H110       29.0779   30.4853    4.1154 H         1 UNK         0.2987 
    111 H111       31.0472   30.4287    6.1310 H         1 UNK         0.0949 
    112 H112       28.6884   29.8080    6.5296 H         1 UNK         0.0806 
    113 H113       29.1527   31.1079    7.6138 H         1 UNK         0.0806 
    114 H114       28.1627   31.4601    6.2050 H         1 UNK         0.0806 
    115 H115       32.5426   31.8854    6.4990 H         1 UNK         0.3010 
    116 H116       33.6937   33.6946    6.9119 H         1 UNK         0.0829 
    117 H117       31.7724   34.5804    8.2663 H         1 UNK         0.0813 
    118 H118       32.7109   35.8588    7.5145 H         1 UNK         0.0813 
    119 H119       31.1569   35.4098    6.8362 H         1 UNK         0.0813 
    120 H120       32.3706   33.0297    4.0334 H         1 UNK         0.3038 
    121 H121       33.5959   35.3236    2.5642 H         1 UNK         0.0769 
    122 H122       31.2788   34.7080    1.8931 H         1 UNK         0.0811 
    123 H123       32.4243   34.3995    0.5980 H         1 UNK         0.0811 
    124 H124       31.7971   33.0614    1.5454 H         1 UNK         0.0811 
    125 H125       33.6256   31.7391    2.8348 H         1 UNK         0.3204 
    126 H126       36.4986   31.7181    2.1195 H         1 UNK         0.0748 
    127 H127       35.2587   31.3582   -0.0482 H         1 UNK         0.0771 
    128 H128       36.2011   29.9561    0.4286 H         1 UNK         0.0771 
    129 H129       34.4621   29.9515    0.6591 H         1 UNK         0.0771 
    130 H130       33.8366   30.3838    3.9749 H         1 UNK         0.2980 
    131 H131       35.7480   28.6868    5.3807 H         1 UNK         0.0545 
    132 H132       33.4976   28.7937    8.2531 H         1 UNK         0.3459 
    133 H133       34.2804   27.5344    7.3373 H         1 UNK         0.3459 
    134 H134       34.8275   27.1270    3.7281 H         1 UNK         0.0616 
    135 H135       34.3397   26.6792    5.3244 H         1 UNK         0.0616 
    136 H136       31.5444   27.1119    6.1663 H         1 UNK         0.0634 
    137 H137       32.2823   25.6414    5.5716 H         1 UNK         0.0634 
@<TRIPOS>BOND
     1    1    2 1    
     2    1   72 1    
     3    1   73 1    
     4    1   74 1    
     5    2    3 2    
     6    2    4 am   BACKBONE|DICT|INTERRES
     7    4    5 1    
     8    4   75 1    
     9    5    6 1    
    10    5   35 1    
    11    5   76 1    
    12    6    7 1    
    13    6   77 1    
    14    6   78 1    
    15    7    8 1    
    16    8    9 1    
    17    8   79 1    
    18    8   80 1    
    19    9   10 ar   
    20    9   14 ar   
    21   10   11 ar   
    22   10   81 1    
    23   11   12 ar   
    24   11   71 1    
    25   12   13 ar   
    26   12   82 1    
    27   13   14 ar   
    28   13   15 1    
    29   14   83 1    
    30   15   16 1    
    31   15   84 1    
    32   15   85 1    
    33   16   17 1    
    34   17   18 1    
    35   17   86 1    
    36   17   87 1    
    37   18   19 1    
    38   18   37 1    
    39   18   88 1    
    40   19   20 am   BACKBONE|DICT|INTERRES
    41   19   89 1    
    42   20   21 2    
    43   20   22 1    
    44   22   23 1    
    45   22   24 1    
    46   22   90 1    
    47   23   91 1    
    48   23   92 1    
    49   23   93 1    
    50   24   25 am   BACKBONE|DICT|INTERRES
    51   24   94 1    
    52   25   26 2    
    53   25   27 1    
    54   27   28 1    
    55   27   29 1    
    56   27   95 1    
    57   28   96 1    
    58   28   97 1    
    59   28   98 1    
    60   29   30 am   BACKBONE|DICT|INTERRES
    61   29   99 1    
    62   30   31 2    
    63   30   32 1    
    64   32   33 1    
    65   32   34 1    
    66   32  100 1    
    67   33  101 1    
    68   33  102 1    
    69   33  103 1    
    70   34   35 am   BACKBONE|DICT|INTERRES
    71   34  104 1    
    72   35   36 2    
    73   37   38 2    
    74   37   39 am   BACKBONE|DICT|INTERRES
    75   39   40 1    
    76   39  105 1    
    77   40   41 1    
    78   40   42 1    
    79   40  106 1    
    80   41  107 1    
    81   41  108 1    
    82   41  109 1    
    83   42   43 2    
    84   42   44 am   BACKBONE|DICT|INTERRES
    85   44   45 1    
    86   44  110 1    
    87   45   46 1    
    88   45   47 1    
    89   45  111 1    
    90   46  112 1    
    91   46  113 1    
    92   46  114 1    
    93   47   48 2    
    94   47   49 am   BACKBONE|DICT|INTERRES
    95   49   50 1    
    96   49  115 1    
    97   50   51 1    
    98   50   52 1    
    99   50  116 1    
   100   51  117 1    
   101   51  118 1    
   102   51  119 1    
   103   52   53 2    
   104   52   54 am   BACKBONE|DICT|INTERRES
   105   54   55 1    
   106   54  120 1    
   107   55   56 1    
   108   55   57 1    
   109   55  121 1    
   110   56  122 1    
   111   56  123 1    
   112   56  124 1    
   113   57   58 2    
   114   57   59 am   BACKBONE|DICT|INTERRES
   115   59   60 1    
   116   59  125 1    
   117   60   61 1    
   118   60   62 1    
   119   60  126 1    
   120   61  127 1    
   121   61  128 1    
   122   61  129 1    
   123   62   63 2    
   124   62   64 am   BACKBONE|DICT|INTERRES
   125   64   65 1    
   126   64  130 1    
   127   65   66 1    
   128   65   69 1    
   129   65  131 1    
   130   66   67 am   BACKBONE|DICT|INTERRES
   131   66   68 2    
   132   67  132 1    
   133   67  133 1    
   134   69   70 1    
   135   69  134 1    
   136   69  135 1    
   137   70   71 1    
   138   71  136 1    
   139   71  137 1    
@<TRIPOS>SUBSTRUCTURE
     1 UNK         1 GROUP             0       ****    0 ROOT    
