@<TRIPOS>MOLECULE
3R136
137   139    1
SMALL
USER_CHARGES


@<TRIPOS>ATOM
      1 CA         24.1764   24.7627    2.5506 C.3       0 UNK        -0.1979 
      2 C          24.8660   23.4187    2.3739 C.2       0 UNK         0.4864 
      3 O          24.2994   22.5154    1.7574 O.2       0 UNK        -0.5359 
      4 N          26.0869   23.2789    2.9083 N.am      1 UNK        -0.4318 
      5 CA         26.9310   22.0807    2.7882 C.3       1 UNK         0.0824 
      6 C6         28.0399   22.0425    3.8710 C.3       12 UNK        -0.0944 
      7 S7         29.0564   23.5568    3.9369 S.3       12 UNK        -0.2672 
      8 C8         30.5732   22.9938    3.1099 C.3       12 UNK         0.0333 
      9 C9         31.4470   24.1750    2.7245 C.ar      12 UNK        -0.0807 
     10 C10        32.5968   24.4851    3.4562 C.ar      12 UNK        -0.0894 
     11 C11        33.4010   25.5651    3.0796 C.ar      12 UNK        -0.0804 
     12 C12        33.0425   26.3428    1.9735 C.ar      12 UNK        -0.0824 
     13 C13        31.8926   26.0421    1.2374 C.ar      12 UNK        -0.0762 
     14 C14        31.1027   24.9550    1.6181 C.ar      12 UNK        -0.0782 
     15 C15        31.5197   26.8783    0.0224 C.3       12 UNK         0.0230 
     16 S16        30.2288   28.0971    0.4159 S.3       12 UNK        -0.2608 
     17 C17        28.7097   27.2074   -0.0720 C.3       12 UNK        -0.0989 
     18 CA         27.4628   28.1143    0.0591 C.3       5 UNK         0.0716 
     19 N          26.3506   27.6539   -0.7723 N.am      5 UNK        -0.4135 
     20 C          25.4526   28.4734   -1.3385 C.2       4 UNK         0.5031 
     21 O          25.5006   29.7007   -1.2293 O.2       4 UNK        -0.5229 
     22 CA         24.2949   27.8451   -2.1462 C.3       4 UNK         0.0329 
     23 CB         23.8717   28.7226   -3.3444 C.3       4 UNK        -0.2001 
     24 N          24.5208   26.4598   -2.5754 N.am      4 UNK        -0.4303 
     25 C          25.4759   25.9945   -3.3941 C.2       3 UNK         0.5044 
     26 O          26.3354   26.6901   -3.9384 O.2       3 UNK        -0.5152 
     27 CA         25.4793   24.4682   -3.6038 C.3       3 UNK         0.0319 
     28 CB         25.6772   24.1117   -5.0878 C.3       3 UNK        -0.2001 
     29 N          26.4856   23.7580   -2.8040 N.am      3 UNK        -0.4354 
     30 C          26.7251   23.9026   -1.4929 C.2       2 UNK         0.4964 
     31 O          26.1850   24.7459   -0.7691 O.2       2 UNK        -0.5047 
     32 CA         27.7462   22.9360   -0.8805 C.3       2 UNK         0.0288 
     33 CB         29.1869   23.3603   -1.2120 C.3       2 UNK        -0.2113 
     34 N          27.5336   22.9486    0.5631 N.am      2 UNK        -0.4145 
     35 C          27.4977   21.8767    1.3632 C.2       1 UNK         0.5006 
     36 O          27.8631   20.7526    1.0143 O.2       1 UNK        -0.5103 
     37 C          27.0009   28.2166    1.5217 C.2       5 UNK         0.5055 
     38 O          26.3918   27.2769    2.0379 O.2       5 UNK        -0.5220 
     39 N          27.3366   29.3390    2.1676 N.am      6 UNK        -0.4450 
     40 CA         27.0976   29.5776    3.5925 C.3       6 UNK         0.0367 
     41 CB         26.9331   31.0905    3.8177 C.3       6 UNK        -0.1929 
     42 C          28.2217   29.0267    4.4907 C.2       6 UNK         0.5070 
     43 O          28.0320   28.9783    5.7069 O.2       6 UNK        -0.5237 
     44 N          29.3665   28.6548    3.8930 N.am      7 UNK        -0.4739 
     45 CA         30.6298   28.2956    4.5508 C.3       7 UNK         0.0276 
     46 CB         30.4872   26.9784    5.3449 C.3       7 UNK        -0.1927 
     47 C          31.1826   29.4814    5.3707 C.2       7 UNK         0.5013 
     48 O          31.0482   30.6257    4.9261 O.2       7 UNK        -0.5193 
     49 N          31.8010   29.2031    6.5289 N.am      8 UNK        -0.4253 
     50 CA         32.3706   30.1640    7.4828 C.3       8 UNK         0.0242 
     51 CB         31.2407   30.9013    8.2374 C.3       8 UNK        -0.2000 
     52 C          33.3866   31.1048    6.8083 C.2       8 UNK         0.4948 
     53 O          34.4917   30.6657    6.4921 O.2       8 UNK        -0.5275 
     54 N          32.9867   32.3579    6.5498 N.am      9 UNK        -0.4246 
     55 CA         33.7660   33.3602    5.8173 C.3       9 UNK         0.0261 
     56 CB         33.0077   34.6971    5.8239 C.3       9 UNK        -0.1959 
     57 C          34.1186   32.9481    4.3749 C.2       9 UNK         0.5033 
     58 O          35.1562   33.3793    3.8697 O.2       9 UNK        -0.5390 
     59 N          33.2888   32.0990    3.7478 N.am      10 UNK        -0.4215 
     60 CA         33.5451   31.5303    2.4206 C.3       10 UNK         0.0240 
     61 CB         32.2509   30.9181    1.8598 C.3       10 UNK        -0.1982 
     62 C          34.6843   30.4927    2.4046 C.2       10 UNK         0.4970 
     63 O          35.1893   30.1895    1.3231 O.2       10 UNK        -0.4916 
     64 N          35.0742   29.9702    3.5763 N.am      11 UNK        -0.4279 
     65 CA         36.1968   29.0331    3.7354 C.3       11 UNK         0.1003 
     66 C          37.5931   29.7208    3.7586 C.2       11 UNK         0.5709 
     67 N          37.6896   31.0463    3.7712 N.am      11 UNK        -0.7358 
     68 O          38.6133   29.0359    3.7510 O.2       11 UNK        -0.4999 
     69 C69        36.0119   28.0924    4.9585 C.3       12 UNK        -0.0954 
     70 S70        34.3829   27.2740    4.9943 S.3       12 UNK        -0.2268 
     71 C71        34.6667   25.8910    3.8534 C.3       12 UNK         0.0203 
     72 H72        24.1335   25.2868    1.5959 H         1 UNK         0.0888 
     73 H73        23.1585   24.6226    2.9130 H         1 UNK         0.0888 
     74 H74        24.7043   25.3989    3.2611 H         1 UNK         0.0888 
     75 H75        26.5095   24.0527    3.4035 H         1 UNK         0.3017 
     76 H76        26.2852   21.2186    2.9699 H         1 UNK         0.0873 
     77 H77        27.5752   21.9240    4.8511 H         1 UNK         0.0745 
     78 H78        28.6785   21.1653    3.7487 H         1 UNK         0.0745 
     79 H79        30.3199   22.4278    2.2124 H         1 UNK         0.0705 
     80 H80        31.1107   22.3092    3.7678 H         1 UNK         0.0705 
     81 H81        32.8682   23.8849    4.3140 H         1 UNK         0.1334 
     82 H82        33.6624   27.1820    1.6872 H         1 UNK         0.1417 
     83 H83        30.2104   24.7134    1.0624 H         1 UNK         0.1562 
     84 H84        31.1980   26.2333   -0.7964 H         1 UNK         0.0748 
     85 H85        32.3966   27.4137   -0.3449 H         1 UNK         0.0748 
     86 H86        28.6005   26.2913    0.5111 H         1 UNK         0.0940 
     87 H87        28.8297   26.8971   -1.1116 H         1 UNK         0.0940 
     88 H88        27.7465   29.1109   -0.2879 H         1 UNK         0.0703 
     89 H89        26.2149   26.6477   -0.8316 H         1 UNK         0.3081 
     90 H90        23.4495   27.8061   -1.4577 H         1 UNK         0.0719 
     91 H91        23.5483   29.7107   -3.0147 H         1 UNK         0.0809 
     92 H92        24.6919   28.8685   -4.0481 H         1 UNK         0.0809 
     93 H93        23.0381   28.2779   -3.8879 H         1 UNK         0.0809 
     94 H94        23.9100   25.7779   -2.1462 H         1 UNK         0.2990 
     95 H95        24.5034   24.0817   -3.3029 H         1 UNK         0.0690 
     96 H96        25.5538   23.0425   -5.2611 H         1 UNK         0.0788 
     97 H97        26.6682   24.3978   -5.4432 H         1 UNK         0.0788 
     98 H98        24.9463   24.6257   -5.7138 H         1 UNK         0.0788 
     99 H99        27.0160   23.0575   -3.3018 H         1 UNK         0.2993 
    100 H100       27.5562   21.9346   -1.2735 H         1 UNK         0.0949 
    101 H101       29.9149   22.7814   -0.6431 H         1 UNK         0.0767 
    102 H102       29.4037   23.2016   -2.2689 H         1 UNK         0.0767 
    103 H103       29.3560   24.4164   -1.0075 H         1 UNK         0.0767 
    104 H104       27.1336   23.8126    0.9080 H         1 UNK         0.3013 
    105 H105       27.8346   30.0608    1.6655 H         1 UNK         0.3121 
    106 H106       26.1688   29.0860    3.8904 H         1 UNK         0.0774 
    107 H107       26.7067   31.3067    4.8627 H         1 UNK         0.0815 
    108 H108       27.8420   31.6378    3.5633 H         1 UNK         0.0815 
    109 H109       26.1158   31.4956    3.2207 H         1 UNK         0.0815 
    110 H110       29.4155   28.7394    2.8876 H         1 UNK         0.2987 
    111 H111       31.3504   28.1149    3.7520 H         1 UNK         0.0949 
    112 H112       30.0409   26.2038    4.7231 H         1 UNK         0.0806 
    113 H113       31.4569   26.5978    5.6660 H         1 UNK         0.0806 
    114 H114       29.8614   27.0937    6.2303 H         1 UNK         0.0806 
    115 H115       31.9071   28.2301    6.7784 H         1 UNK         0.3010 
    116 H116       32.9341   29.5835    8.2149 H         1 UNK         0.0829 
    117 H117       30.6321   30.1976    8.8055 H         1 UNK         0.0813 
    118 H118       31.6453   31.6199    8.9517 H         1 UNK         0.0813 
    119 H119       30.5705   31.4380    7.5650 H         1 UNK         0.0813 
    120 H120       32.0455   32.6154    6.8099 H         1 UNK         0.3038 
    121 H121       34.7074   33.4973    6.3535 H         1 UNK         0.0769 
    122 H122       33.5772   35.4710    5.3071 H         1 UNK         0.0811 
    123 H123       32.8334   35.0509    6.8402 H         1 UNK         0.0811 
    124 H124       32.0413   34.6156    5.3245 H         1 UNK         0.0811 
    125 H125       32.4638   31.7583    4.2380 H         1 UNK         0.3204 
    126 H126       33.8429   32.3470    1.7596 H         1 UNK         0.0748 
    127 H127       32.3869   30.6013    0.8248 H         1 UNK         0.0771 
    128 H128       31.9418   30.0395    2.4241 H         1 UNK         0.0771 
    129 H129       31.4289   31.6339    1.8743 H         1 UNK         0.0771 
    130 H130       34.6421   30.2777    4.4399 H         1 UNK         0.2980 
    131 H131       36.2122   28.3939    2.8512 H         1 UNK         0.0545 
    132 H132       38.6024   31.4731    3.7803 H         1 UNK         0.3459 
    133 H133       36.8621   31.6247    3.7748 H         1 UNK         0.3459 
    134 H134       36.7874   27.3244    4.9767 H         1 UNK         0.0616 
    135 H135       36.1224   28.6528    5.8879 H         1 UNK         0.0616 
    136 H136       35.0139   25.0252    4.4192 H         1 UNK         0.0634 
    137 H137       35.4619   26.1363    3.1485 H         1 UNK         0.0634 
@<TRIPOS>BOND
     1    1    2 1    
     2    1   72 1    
     3    1   73 1    
     4    1   74 1    
     5    2    3 2    
     6    2    4 am   BACKBONE|DICT|INTERRES
     7    4    5 1    
     8    4   75 1    
     9    5    6 1    
    10    5   35 1    
    11    5   76 1    
    12    6    7 1    
    13    6   77 1    
    14    6   78 1    
    15    7    8 1    
    16    8    9 1    
    17    8   79 1    
    18    8   80 1    
    19    9   10 ar   
    20    9   14 ar   
    21   10   11 ar   
    22   10   81 1    
    23   11   12 ar   
    24   11   71 1    
    25   12   13 ar   
    26   12   82 1    
    27   13   14 ar   
    28   13   15 1    
    29   14   83 1    
    30   15   16 1    
    31   15   84 1    
    32   15   85 1    
    33   16   17 1    
    34   17   18 1    
    35   17   86 1    
    36   17   87 1    
    37   18   19 1    
    38   18   37 1    
    39   18   88 1    
    40   19   20 am   BACKBONE|DICT|INTERRES
    41   19   89 1    
    42   20   21 2    
    43   20   22 1    
    44   22   23 1    
    45   22   24 1    
    46   22   90 1    
    47   23   91 1    
    48   23   92 1    
    49   23   93 1    
    50   24   25 am   BACKBONE|DICT|INTERRES
    51   24   94 1    
    52   25   26 2    
    53   25   27 1    
    54   27   28 1    
    55   27   29 1    
    56   27   95 1    
    57   28   96 1    
    58   28   97 1    
    59   28   98 1    
    60   29   30 am   BACKBONE|DICT|INTERRES
    61   29   99 1    
    62   30   31 2    
    63   30   32 1    
    64   32   33 1    
    65   32   34 1    
    66   32  100 1    
    67   33  101 1    
    68   33  102 1    
    69   33  103 1    
    70   34   35 am   BACKBONE|DICT|INTERRES
    71   34  104 1    
    72   35   36 2    
    73   37   38 2    
    74   37   39 am   BACKBONE|DICT|INTERRES
    75   39   40 1    
    76   39  105 1    
    77   40   41 1    
    78   40   42 1    
    79   40  106 1    
    80   41  107 1    
    81   41  108 1    
    82   41  109 1    
    83   42   43 2    
    84   42   44 am   BACKBONE|DICT|INTERRES
    85   44   45 1    
    86   44  110 1    
    87   45   46 1    
    88   45   47 1    
    89   45  111 1    
    90   46  112 1    
    91   46  113 1    
    92   46  114 1    
    93   47   48 2    
    94   47   49 am   BACKBONE|DICT|INTERRES
    95   49   50 1    
    96   49  115 1    
    97   50   51 1    
    98   50   52 1    
    99   50  116 1    
   100   51  117 1    
   101   51  118 1    
   102   51  119 1    
   103   52   53 2    
   104   52   54 am   BACKBONE|DICT|INTERRES
   105   54   55 1    
   106   54  120 1    
   107   55   56 1    
   108   55   57 1    
   109   55  121 1    
   110   56  122 1    
   111   56  123 1    
   112   56  124 1    
   113   57   58 2    
   114   57   59 am   BACKBONE|DICT|INTERRES
   115   59   60 1    
   116   59  125 1    
   117   60   61 1    
   118   60   62 1    
   119   60  126 1    
   120   61  127 1    
   121   61  128 1    
   122   61  129 1    
   123   62   63 2    
   124   62   64 am   BACKBONE|DICT|INTERRES
   125   64   65 1    
   126   64  130 1    
   127   65   66 1    
   128   65   69 1    
   129   65  131 1    
   130   66   67 am   BACKBONE|DICT|INTERRES
   131   66   68 2    
   132   67  132 1    
   133   67  133 1    
   134   69   70 1    
   135   69  134 1    
   136   69  135 1    
   137   70   71 1    
   138   71  136 1    
   139   71  137 1    
@<TRIPOS>SUBSTRUCTURE
     1 UNK         1 GROUP             0       ****    0 ROOT    
