@<TRIPOS>MOLECULE
3R136
137   139    1
SMALL
USER_CHARGES


@<TRIPOS>ATOM
      1 CA         33.3381   26.5535   -0.5158 C.3       0 UNK        -0.1979 
      2 C          32.4292   25.3705   -0.8172 C.2       0 UNK         0.4864 
      3 O          32.4776   24.8327   -1.9246 O.2       0 UNK        -0.5359 
      4 N          31.6209   24.9610    0.1697 N.am      1 UNK        -0.4318 
      5 CA         30.6539   23.8587    0.1148 C.3       1 UNK         0.0824 
      6 C6         31.3175   22.4848   -0.2095 C.3       12 UNK        -0.0944 
      7 S7         30.4957   21.0704    0.6079 S.3       12 UNK        -0.2672 
      8 C8         31.5449   20.8025    2.0809 C.3       12 UNK         0.0333 
      9 C9         31.6152   22.0350    2.9741 C.ar      12 UNK        -0.0807 
     10 C10        32.8494   22.6122    3.2906 C.ar      12 UNK        -0.0894 
     11 C11        32.9082   23.7813    4.0560 C.ar      12 UNK        -0.0804 
     12 C12        31.7226   24.3924    4.4760 C.ar      12 UNK        -0.0824 
     13 C13        30.4851   23.8300    4.1540 C.ar      12 UNK        -0.0762 
     14 C14        30.4404   22.6239    3.4505 C.ar      12 UNK        -0.0782 
     15 C15        29.1939   24.5546    4.4947 C.3       12 UNK         0.0230 
     16 S16        28.3852   25.1142    2.9628 S.3       12 UNK        -0.2608 
     17 C17        27.0453   26.1693    3.5937 C.3       12 UNK        -0.0989 
     18 CA         27.2076   27.6261    3.1018 C.3       5 UNK         0.0716 
     19 N          27.1434   27.7235    1.6430 N.am      5 UNK        -0.4135 
     20 C          27.4809   28.8183    0.9505 C.2       4 UNK         0.5031 
     21 O          27.8500   29.8657    1.4861 O.2       4 UNK        -0.5229 
     22 CA         27.4604   28.7329   -0.5878 C.3       4 UNK         0.0329 
     23 CB         28.8947   28.6703   -1.1401 C.3       4 UNK        -0.2001 
     24 N          26.7071   27.5897   -1.1094 N.am      4 UNK        -0.4303 
     25 C          25.3693   27.4989   -1.1155 C.2       3 UNK         0.5044 
     26 O          24.6296   28.3829   -0.6824 O.2       3 UNK        -0.5152 
     27 CA         24.7335   26.2266   -1.7115 C.3       3 UNK         0.0319 
     28 CB         23.9913   26.5572   -3.0176 C.3       3 UNK        -0.2001 
     29 N          25.6730   25.1308   -1.9711 N.am      3 UNK        -0.4354 
     30 C          26.2992   24.4042   -1.0359 C.2       2 UNK         0.4964 
     31 O          26.1768   24.6083    0.1730 O.2       2 UNK        -0.5047 
     32 CA         27.2028   23.2521   -1.5263 C.3       2 UNK         0.0288 
     33 CB         27.4333   23.2282   -3.0559 C.3       2 UNK        -0.2113 
     34 N          28.4870   23.2099   -0.8191 N.am      2 UNK        -0.4145 
     35 C          29.4108   24.1793   -0.7498 C.2       1 UNK         0.5006 
     36 O          29.2874   25.2777   -1.2995 O.2       1 UNK        -0.5103 
     37 C          26.1645   28.5414    3.7846 C.2       5 UNK         0.5055 
     38 O          25.0239   28.5863    3.3227 O.2       5 UNK        -0.5220 
     39 N          26.4896   29.2166    4.8975 N.am      6 UNK        -0.4450 
     40 CA         27.8150   29.3445    5.5160 C.3       6 UNK         0.0367 
     41 CB         27.6401   29.5277    7.0321 C.3       6 UNK        -0.1929 
     42 C          28.6107   30.5309    4.9415 C.2       6 UNK         0.5070 
     43 O          29.8329   30.4411    4.8271 O.2       6 UNK        -0.5237 
     44 N          27.9048   31.6278    4.6318 N.am      7 UNK        -0.4739 
     45 CA         28.4656   32.9646    4.4135 C.3       7 UNK         0.0276 
     46 CB         27.3190   33.9803    4.2799 C.3       7 UNK        -0.1927 
     47 C          29.4369   33.0970    3.2314 C.2       7 UNK         0.5013 
     48 O          30.4631   33.7624    3.3781 O.2       7 UNK        -0.5193 
     49 N          29.0999   32.4887    2.0870 N.am      8 UNK        -0.4253 
     50 CA         29.9299   32.5365    0.8802 C.3       8 UNK         0.0242 
     51 CB         29.0411   32.4802   -0.3732 C.3       8 UNK        -0.2000 
     52 C          31.0033   31.4369    0.8734 C.2       8 UNK         0.4948 
     53 O          32.0563   31.6381    0.2676 O.2       8 UNK        -0.5275 
     54 N          30.7354   30.3103    1.5522 N.am      9 UNK        -0.4246 
     55 CA         31.6965   29.2274    1.7714 C.3       9 UNK         0.0261 
     56 CB         30.9901   27.9847    2.3396 C.3       9 UNK        -0.1959 
     57 C          32.8453   29.6630    2.6924 C.2       9 UNK         0.5033 
     58 O          34.0025   29.3804    2.3823 O.2       9 UNK        -0.5390 
     59 N          32.5020   30.3385    3.8007 N.am      10 UNK        -0.4215 
     60 CA         33.3663   30.9462    4.8247 C.3       10 UNK         0.0240 
     61 CB         34.2573   32.0460    4.2153 C.3       10 UNK        -0.1982 
     62 C          34.2005   29.9622    5.6695 C.2       10 UNK         0.4970 
     63 O          34.4420   30.2482    6.8432 O.2       10 UNK        -0.4916 
     64 N          34.6248   28.8399    5.0803 N.am      11 UNK        -0.4279 
     65 CA         35.3280   27.7266    5.7278 C.3       11 UNK         0.1003 
     66 C          34.5213   27.0555    6.8774 C.2       11 UNK         0.5709 
     67 N          35.2065   26.4432    7.8340 N.am      11 UNK        -0.7358 
     68 O          33.2914   27.0485    6.8928 O.2       11 UNK        -0.4999 
     69 C69        35.8287   26.6950    4.6780 C.3       12 UNK        -0.0954 
     70 S70        34.5116   25.9933    3.6214 S.3       12 UNK        -0.2268 
     71 C71        34.2472   24.3897    4.4384 C.3       12 UNK         0.0203 
     72 H72        34.3532   26.3428   -0.8514 H         1 UNK         0.0888 
     73 H73        32.9838   27.4413   -1.0387 H         1 UNK         0.0888 
     74 H74        33.3810   26.7745    0.5508 H         1 UNK         0.0888 
     75 H75        31.6351   25.4574    1.0481 H         1 UNK         0.3017 
     76 H76        30.2684   23.8166    1.1293 H         1 UNK         0.0873 
     77 H77        31.3444   22.3083   -1.2865 H         1 UNK         0.0745 
     78 H78        32.3617   22.4860    0.1077 H         1 UNK         0.0745 
     79 H79        31.1411   19.9690    2.6569 H         1 UNK         0.0705 
     80 H80        32.5408   20.4992    1.7539 H         1 UNK         0.0705 
     81 H81        33.7639   22.1558    2.9371 H         1 UNK         0.1334 
     82 H82        31.7699   25.3186    5.0340 H         1 UNK         0.1417 
     83 H83        29.4824   22.1906    3.1958 H         1 UNK         0.1562 
     84 H84        29.3902   25.4134    5.1387 H         1 UNK         0.0748 
     85 H85        28.5263   23.8886    5.0434 H         1 UNK         0.0748 
     86 H86        27.0350   26.1249    4.6847 H         1 UNK         0.0940 
     87 H87        26.0917   25.7528    3.2624 H         1 UNK         0.0940 
     88 H88        28.2114   27.9587    3.3520 H         1 UNK         0.0703 
     89 H89        26.8516   26.8930    1.1464 H         1 UNK         0.3081 
     90 H90        26.9907   29.6460   -0.9587 H         1 UNK         0.0719 
     91 H91        29.4458   27.8198   -0.7390 H         1 UNK         0.0809 
     92 H92        28.9015   28.5916   -2.2273 H         1 UNK         0.0809 
     93 H93        29.4586   29.5649   -0.8824 H         1 UNK         0.0809 
     94 H94        27.2487   26.8125   -1.4649 H         1 UNK         0.2990 
     95 H95        23.9999   25.8703   -0.9853 H         1 UNK         0.0690 
     96 H96        23.4618   25.6868   -3.4058 H         1 UNK         0.0788 
     97 H97        24.6743   26.9097   -3.7915 H         1 UNK         0.0788 
     98 H98        23.2476   27.3397   -2.8592 H         1 UNK         0.0788 
     99 H99        25.8438   24.9038   -2.9404 H         1 UNK         0.2993 
    100 H100       26.6794   22.3331   -1.2580 H         1 UNK         0.0949 
    101 H101       27.9113   24.1412   -3.4138 H         1 UNK         0.0767 
    102 H102       28.0739   22.3926   -3.3391 H         1 UNK         0.0767 
    103 H103       26.4965   23.1020   -3.6004 H         1 UNK         0.0767 
    104 H104       28.6755   22.3579   -0.3060 H         1 UNK         0.3013 
    105 H105       25.7528   29.7441    5.3426 H         1 UNK         0.3121 
    106 H106       28.4016   28.4343    5.3903 H         1 UNK         0.0774 
    107 H107       27.0704   30.4260    7.2736 H         1 UNK         0.0815 
    108 H108       28.6083   29.6144    7.5279 H         1 UNK         0.0815 
    109 H109       27.1265   28.6755    7.4776 H         1 UNK         0.0815 
    110 H110       26.9000   31.5783    4.7096 H         1 UNK         0.2987 
    111 H111       29.0317   33.2192    5.3125 H         1 UNK         0.0949 
    112 H112       26.6748   33.7534    3.4295 H         1 UNK         0.0806 
    113 H113       26.6987   34.0007    5.1762 H         1 UNK         0.0806 
    114 H114       27.7058   34.9903    4.1350 H         1 UNK         0.0806 
    115 H115       28.2791   31.8939    2.0591 H         1 UNK         0.3010 
    116 H116       30.4608   33.4909    0.8491 H         1 UNK         0.0829 
    117 H117       29.6445   32.4383   -1.2811 H         1 UNK         0.0813 
    118 H118       28.3850   31.6126   -0.3753 H         1 UNK         0.0813 
    119 H119       28.4118   33.3672   -0.4450 H         1 UNK         0.0813 
    120 H120       29.8122   30.2098    1.9591 H         1 UNK         0.3038 
    121 H121       32.1256   28.9644    0.8030 H         1 UNK         0.0769 
    122 H122       30.2248   27.6111    1.6601 H         1 UNK         0.0811 
    123 H123       30.5200   28.1923    3.3006 H         1 UNK         0.0811 
    124 H124       31.7009   27.1742    2.5050 H         1 UNK         0.0811 
    125 H125       31.5058   30.4343    3.9966 H         1 UNK         0.3204 
    126 H126       32.6790   31.4328    5.5189 H         1 UNK         0.0748 
    127 H127       34.8188   32.5675    4.9915 H         1 UNK         0.0771 
    128 H128       34.9815   31.6391    3.5090 H         1 UNK         0.0771 
    129 H129       33.6591   32.7916    3.6907 H         1 UNK         0.0771 
    130 H130       34.4135   28.7213    4.0939 H         1 UNK         0.2980 
    131 H131       36.2126   28.1675    6.1912 H         1 UNK         0.0545 
    132 H132       36.2145   26.4311    7.8306 H         1 UNK         0.3459 
    133 H133       34.7034   25.9912    8.5813 H         1 UNK         0.3459 
    134 H134       36.3840   25.8884    5.1602 H         1 UNK         0.0616 
    135 H135       36.5463   27.1812    4.0156 H         1 UNK         0.0616 
    136 H136       35.0706   23.7211    4.1827 H         1 UNK         0.0634 
    137 H137       34.2741   24.5120    5.5213 H         1 UNK         0.0634 
@<TRIPOS>BOND
     1    1    2 1    
     2    1   72 1    
     3    1   73 1    
     4    1   74 1    
     5    2    3 2    
     6    2    4 am   BACKBONE|DICT|INTERRES
     7    4    5 1    
     8    4   75 1    
     9    5    6 1    
    10    5   35 1    
    11    5   76 1    
    12    6    7 1    
    13    6   77 1    
    14    6   78 1    
    15    7    8 1    
    16    8    9 1    
    17    8   79 1    
    18    8   80 1    
    19    9   10 ar   
    20    9   14 ar   
    21   10   11 ar   
    22   10   81 1    
    23   11   12 ar   
    24   11   71 1    
    25   12   13 ar   
    26   12   82 1    
    27   13   14 ar   
    28   13   15 1    
    29   14   83 1    
    30   15   16 1    
    31   15   84 1    
    32   15   85 1    
    33   16   17 1    
    34   17   18 1    
    35   17   86 1    
    36   17   87 1    
    37   18   19 1    
    38   18   37 1    
    39   18   88 1    
    40   19   20 am   BACKBONE|DICT|INTERRES
    41   19   89 1    
    42   20   21 2    
    43   20   22 1    
    44   22   23 1    
    45   22   24 1    
    46   22   90 1    
    47   23   91 1    
    48   23   92 1    
    49   23   93 1    
    50   24   25 am   BACKBONE|DICT|INTERRES
    51   24   94 1    
    52   25   26 2    
    53   25   27 1    
    54   27   28 1    
    55   27   29 1    
    56   27   95 1    
    57   28   96 1    
    58   28   97 1    
    59   28   98 1    
    60   29   30 am   BACKBONE|DICT|INTERRES
    61   29   99 1    
    62   30   31 2    
    63   30   32 1    
    64   32   33 1    
    65   32   34 1    
    66   32  100 1    
    67   33  101 1    
    68   33  102 1    
    69   33  103 1    
    70   34   35 am   BACKBONE|DICT|INTERRES
    71   34  104 1    
    72   35   36 2    
    73   37   38 2    
    74   37   39 am   BACKBONE|DICT|INTERRES
    75   39   40 1    
    76   39  105 1    
    77   40   41 1    
    78   40   42 1    
    79   40  106 1    
    80   41  107 1    
    81   41  108 1    
    82   41  109 1    
    83   42   43 2    
    84   42   44 am   BACKBONE|DICT|INTERRES
    85   44   45 1    
    86   44  110 1    
    87   45   46 1    
    88   45   47 1    
    89   45  111 1    
    90   46  112 1    
    91   46  113 1    
    92   46  114 1    
    93   47   48 2    
    94   47   49 am   BACKBONE|DICT|INTERRES
    95   49   50 1    
    96   49  115 1    
    97   50   51 1    
    98   50   52 1    
    99   50  116 1    
   100   51  117 1    
   101   51  118 1    
   102   51  119 1    
   103   52   53 2    
   104   52   54 am   BACKBONE|DICT|INTERRES
   105   54   55 1    
   106   54  120 1    
   107   55   56 1    
   108   55   57 1    
   109   55  121 1    
   110   56  122 1    
   111   56  123 1    
   112   56  124 1    
   113   57   58 2    
   114   57   59 am   BACKBONE|DICT|INTERRES
   115   59   60 1    
   116   59  125 1    
   117   60   61 1    
   118   60   62 1    
   119   60  126 1    
   120   61  127 1    
   121   61  128 1    
   122   61  129 1    
   123   62   63 2    
   124   62   64 am   BACKBONE|DICT|INTERRES
   125   64   65 1    
   126   64  130 1    
   127   65   66 1    
   128   65   69 1    
   129   65  131 1    
   130   66   67 am   BACKBONE|DICT|INTERRES
   131   66   68 2    
   132   67  132 1    
   133   67  133 1    
   134   69   70 1    
   135   69  134 1    
   136   69  135 1    
   137   70   71 1    
   138   71  136 1    
   139   71  137 1    
@<TRIPOS>SUBSTRUCTURE
     1 UNK         1 GROUP             0       ****    0 ROOT    
