@<TRIPOS>MOLECULE
3R136
137   139    1
SMALL
USER_CHARGES


@<TRIPOS>ATOM
      1 CA         32.8887   29.2418   -0.7350 C.3       0 UNK        -0.1979 
      2 C          32.0020   28.0074   -0.8051 C.2       0 UNK         0.4864 
      3 O          31.9630   27.3491   -1.8454 O.2       0 UNK        -0.5359 
      4 N          31.2696   27.7083    0.2804 N.am      1 UNK        -0.4318 
      5 CA         30.3047   26.6111    0.4438 C.3       1 UNK         0.0824 
      6 C6         30.9243   25.2176    0.1479 C.3       12 UNK        -0.0944 
      7 S7         29.8654   23.8130    0.6178 S.3       12 UNK        -0.2672 
      8 C8         30.8122   23.0296    1.9609 C.3       12 UNK         0.0333 
      9 C9         30.5506   23.6693    3.3184 C.ar      12 UNK        -0.0807 
     10 C10        31.4698   24.5650    3.8748 C.ar      12 UNK        -0.0894 
     11 C11        31.2687   25.0751    5.1623 C.ar      12 UNK        -0.0804 
     12 C12        30.1275   24.7083    5.8806 C.ar      12 UNK        -0.0824 
     13 C13        29.1969   23.8214    5.3336 C.ar      12 UNK        -0.0762 
     14 C14        29.4164   23.3046    4.0523 C.ar      12 UNK        -0.0782 
     15 C15        27.9958   23.3747    6.1596 C.3       12 UNK         0.0230 
     16 S16        26.3988   23.6895    5.3436 S.3       12 UNK        -0.2608 
     17 C17        26.3645   25.5115    5.2408 C.3       12 UNK        -0.0989 
     18 CA         26.6189   26.0722    3.8115 C.3       5 UNK         0.0716 
     19 N          25.6737   25.5600    2.8137 N.am      5 UNK        -0.4135 
     20 C          25.9201   24.5824    1.9382 C.2       4 UNK         0.5031 
     21 O          26.9015   23.8440    1.9902 O.2       4 UNK        -0.5229 
     22 CA         24.9373   24.4132    0.7724 C.3       4 UNK         0.0329 
     23 CB         23.8581   25.5141    0.6640 C.3       4 UNK        -0.2001 
     24 N          25.7453   24.3874   -0.4401 N.am      4 UNK        -0.4303 
     25 C          25.4441   23.7674   -1.5837 C.2       3 UNK         0.5044 
     26 O          24.3955   23.1461   -1.7681 O.2       3 UNK        -0.5152 
     27 CA         26.5059   23.8421   -2.7026 C.3       3 UNK         0.0319 
     28 CB         25.8971   23.6787   -4.1121 C.3       3 UNK        -0.2001 
     29 N          27.3603   25.0389   -2.6394 N.am      3 UNK        -0.4354 
     30 C          26.9713   26.3217   -2.7292 C.2       2 UNK         0.4964 
     31 O          25.8009   26.6782   -2.8745 O.2       2 UNK        -0.5047 
     32 CA         28.0929   27.3762   -2.6485 C.3       2 UNK         0.0288 
     33 CB         27.5689   28.8122   -2.4364 C.3       2 UNK        -0.2113 
     34 N          29.1330   27.0533   -1.6638 N.am      2 UNK        -0.4145 
     35 C          29.0010   26.8906   -0.3383 C.2       1 UNK         0.5006 
     36 O          27.9322   26.9976    0.2707 O.2       1 UNK        -0.5103 
     37 C          26.5304   27.6143    3.7699 C.2       5 UNK         0.5055 
     38 O          26.5338   28.2592    4.8201 O.2       5 UNK        -0.5220 
     39 N          26.3459   28.1771    2.5654 N.am      6 UNK        -0.4450 
     40 CA         25.9000   29.5567    2.3688 C.3       6 UNK         0.0367 
     41 CB         25.0191   29.6355    1.1105 C.3       6 UNK        -0.1929 
     42 C          27.0635   30.5493    2.2858 C.2       6 UNK         0.5070 
     43 O          27.0237   31.5843    2.9521 O.2       6 UNK        -0.5237 
     44 N          28.0687   30.2338    1.4608 N.am      7 UNK        -0.4739 
     45 CA         29.2358   31.0878    1.2518 C.3       7 UNK         0.0276 
     46 CB         29.7410   30.9319   -0.1903 C.3       7 UNK        -0.1927 
     47 C          30.3115   30.7585    2.2944 C.2       7 UNK         0.5013 
     48 O          30.9778   29.7266    2.1839 O.2       7 UNK        -0.5193 
     49 N          30.4594   31.6459    3.2855 N.am      8 UNK        -0.4253 
     50 CA         31.3568   31.4994    4.4360 C.3       8 UNK         0.0242 
     51 CB         31.0103   32.5754    5.4784 C.3       8 UNK        -0.2000 
     52 C          32.8618   31.5320    4.1090 C.2       8 UNK         0.4948 
     53 O          33.6624   31.2232    4.9901 O.2       8 UNK        -0.5275 
     54 N          33.2392   31.8797    2.8695 N.am      9 UNK        -0.4246 
     55 CA         34.6274   31.9447    2.3936 C.3       9 UNK         0.0261 
     56 CB         34.6476   32.4842    0.9540 C.3       9 UNK        -0.1959 
     57 C          35.4015   30.6137    2.4856 C.2       9 UNK         0.5033 
     58 O          36.6246   30.6415    2.6260 O.2       9 UNK        -0.5390 
     59 N          34.6854   29.4813    2.4359 N.am      10 UNK        -0.4215 
     60 CA         35.2408   28.1415    2.6544 C.3       10 UNK         0.0240 
     61 CB         34.3554   27.1053    1.9404 C.3       10 UNK        -0.1982 
     62 C          35.3685   27.7742    4.1442 C.2       10 UNK         0.4970 
     63 O          36.0294   26.7829    4.4562 O.2       10 UNK        -0.4916 
     64 N          34.7076   28.5328    5.0260 N.am      11 UNK        -0.4279 
     65 CA         34.5400   28.2250    6.4522 C.3       11 UNK         0.1003 
     66 C          35.5497   28.9633    7.3757 C.2       11 UNK         0.5709 
     67 N          36.4394   29.8016    6.8568 N.am      11 UNK        -0.7358 
     68 O          35.5405   28.7553    8.5868 O.2       11 UNK        -0.4999 
     69 C69        33.0697   28.4555    6.9071 C.3       12 UNK        -0.0954 
     70 S70        31.7997   27.7128    5.8177 S.3       12 UNK        -0.2268 
     71 C71        32.3108   25.9694    5.8137 C.3       12 UNK         0.0203 
     72 H72        32.7896   29.7589    0.2172 H         1 UNK         0.0888 
     73 H73        33.9341   28.9648   -0.8664 H         1 UNK         0.0888 
     74 H74        32.6206   29.9398   -1.5276 H         1 UNK         0.0888 
     75 H75        31.2849   28.3600    1.0655 H         1 UNK         0.3017 
     76 H76        30.0360   26.6247    1.5020 H         1 UNK         0.0873 
     77 H77        31.1555   25.1049   -0.9118 H         1 UNK         0.0745 
     78 H78        31.8802   25.1315    0.6661 H         1 UNK         0.0745 
     79 H79        30.5292   21.9769    2.0060 H         1 UNK         0.0705 
     80 H80        31.8771   23.0381    1.7241 H         1 UNK         0.0705 
     81 H81        32.3585   24.8359    3.3214 H         1 UNK         0.1334 
     82 H82        29.9811   25.0973    6.8793 H         1 UNK         0.1417 
     83 H83        28.7046   22.6092    3.6274 H         1 UNK         0.1562 
     84 H84        27.9911   23.8571    7.1384 H         1 UNK         0.0748 
     85 H85        28.0834   22.3041    6.3494 H         1 UNK         0.0748 
     86 H86        27.0972   25.9173    5.9412 H         1 UNK         0.0940 
     87 H87        25.3897   25.8400    5.6061 H         1 UNK         0.0940 
     88 H88        27.6388   25.8161    3.5145 H         1 UNK         0.0703 
     89 H89        24.8301   26.1038    2.7007 H         1 UNK         0.3081 
     90 H90        24.4490   23.4455    0.9037 H         1 UNK         0.0719 
     91 H91        24.2977   26.5029    0.5259 H         1 UNK         0.0809 
     92 H92        23.2007   25.3315   -0.1864 H         1 UNK         0.0809 
     93 H93        23.2224   25.5418    1.5499 H         1 UNK         0.0809 
     94 H94        26.6507   24.8327   -0.3571 H         1 UNK         0.2990 
     95 H95        27.1695   22.9927   -2.5340 H         1 UNK         0.0690 
     96 H96        26.6664   23.7128   -4.8835 H         1 UNK         0.0788 
     97 H97        25.1673   24.4590   -4.3303 H         1 UNK         0.0788 
     98 H98        25.3859   22.7202   -4.2102 H         1 UNK         0.0788 
     99 H99        28.3461   24.8603   -2.5053 H         1 UNK         0.2993 
    100 H100       28.5822   27.3537   -3.6235 H         1 UNK         0.0949 
    101 H101       27.0835   28.9277   -1.4687 H         1 UNK         0.0767 
    102 H102       28.3791   29.5380   -2.4963 H         1 UNK         0.0767 
    103 H103       26.8411   29.0846   -3.2016 H         1 UNK         0.0767 
    104 H104       30.0836   26.9978   -2.0241 H         1 UNK         0.3013 
    105 H105       26.4911   27.6130    1.7348 H         1 UNK         0.3121 
    106 H106       25.2789   29.8558    3.2167 H         1 UNK         0.0774 
    107 H107       25.5398   29.2765    0.2235 H         1 UNK         0.0815 
    108 H108       24.7078   30.6624    0.9140 H         1 UNK         0.0815 
    109 H109       24.1123   29.0420    1.2267 H         1 UNK         0.0815 
    110 H110       28.0539   29.3397    0.9897 H         1 UNK         0.2987 
    111 H111       28.9513   32.1363    1.3702 H         1 UNK         0.0949 
    112 H112       29.8545   29.8887   -0.4730 H         1 UNK         0.0806 
    113 H113       29.0431   31.3844   -0.8948 H         1 UNK         0.0806 
    114 H114       30.7033   31.4257   -0.3304 H         1 UNK         0.0806 
    115 H115       29.8508   32.4526    3.2977 H         1 UNK         0.3010 
    116 H116       31.1567   30.5227    4.8808 H         1 UNK         0.0829 
    117 H117       29.9700   32.5006    5.7962 H         1 UNK         0.0813 
    118 H118       31.6260   32.4676    6.3728 H         1 UNK         0.0813 
    119 H119       31.1735   33.5814    5.0900 H         1 UNK         0.0813 
    120 H120       32.5184   32.1327    2.2104 H         1 UNK         0.3038 
    121 H121       35.1518   32.6603    3.0305 H         1 UNK         0.0769 
    122 H122       34.1045   31.8353    0.2671 H         1 UNK         0.0811 
    123 H123       35.6703   32.5662    0.5828 H         1 UNK         0.0811 
    124 H124       34.2059   33.4793    0.8965 H         1 UNK         0.0811 
    125 H125       33.6812   29.5535    2.3499 H         1 UNK         0.3204 
    126 H126       36.2415   28.0910    2.2198 H         1 UNK         0.0748 
    127 H127       34.7140   26.0904    2.1189 H         1 UNK         0.0771 
    128 H128       33.3216   27.1484    2.2860 H         1 UNK         0.0771 
    129 H129       34.3644   27.2545    0.8621 H         1 UNK         0.0771 
    130 H130       34.2546   29.3888    4.7253 H         1 UNK         0.2980 
    131 H131       34.7570   27.1673    6.6069 H         1 UNK         0.0545 
    132 H132       37.0930   30.2693    7.4645 H         1 UNK         0.3459 
    133 H133       36.4456   29.9854    5.8661 H         1 UNK         0.3459 
    134 H134       32.9199   28.0611    7.9137 H         1 UNK         0.0616 
    135 H135       32.8577   29.5242    6.9689 H         1 UNK         0.0616 
    136 H136       33.2638   25.8709    5.2931 H         1 UNK         0.0634 
    137 H137       32.4820   25.6404    6.8398 H         1 UNK         0.0634 
@<TRIPOS>BOND
     1    1    2 1    
     2    1   72 1    
     3    1   73 1    
     4    1   74 1    
     5    2    3 2    
     6    2    4 am   BACKBONE|DICT|INTERRES
     7    4    5 1    
     8    4   75 1    
     9    5    6 1    
    10    5   35 1    
    11    5   76 1    
    12    6    7 1    
    13    6   77 1    
    14    6   78 1    
    15    7    8 1    
    16    8    9 1    
    17    8   79 1    
    18    8   80 1    
    19    9   10 ar   
    20    9   14 ar   
    21   10   11 ar   
    22   10   81 1    
    23   11   12 ar   
    24   11   71 1    
    25   12   13 ar   
    26   12   82 1    
    27   13   14 ar   
    28   13   15 1    
    29   14   83 1    
    30   15   16 1    
    31   15   84 1    
    32   15   85 1    
    33   16   17 1    
    34   17   18 1    
    35   17   86 1    
    36   17   87 1    
    37   18   19 1    
    38   18   37 1    
    39   18   88 1    
    40   19   20 am   BACKBONE|DICT|INTERRES
    41   19   89 1    
    42   20   21 2    
    43   20   22 1    
    44   22   23 1    
    45   22   24 1    
    46   22   90 1    
    47   23   91 1    
    48   23   92 1    
    49   23   93 1    
    50   24   25 am   BACKBONE|DICT|INTERRES
    51   24   94 1    
    52   25   26 2    
    53   25   27 1    
    54   27   28 1    
    55   27   29 1    
    56   27   95 1    
    57   28   96 1    
    58   28   97 1    
    59   28   98 1    
    60   29   30 am   BACKBONE|DICT|INTERRES
    61   29   99 1    
    62   30   31 2    
    63   30   32 1    
    64   32   33 1    
    65   32   34 1    
    66   32  100 1    
    67   33  101 1    
    68   33  102 1    
    69   33  103 1    
    70   34   35 am   BACKBONE|DICT|INTERRES
    71   34  104 1    
    72   35   36 2    
    73   37   38 2    
    74   37   39 am   BACKBONE|DICT|INTERRES
    75   39   40 1    
    76   39  105 1    
    77   40   41 1    
    78   40   42 1    
    79   40  106 1    
    80   41  107 1    
    81   41  108 1    
    82   41  109 1    
    83   42   43 2    
    84   42   44 am   BACKBONE|DICT|INTERRES
    85   44   45 1    
    86   44  110 1    
    87   45   46 1    
    88   45   47 1    
    89   45  111 1    
    90   46  112 1    
    91   46  113 1    
    92   46  114 1    
    93   47   48 2    
    94   47   49 am   BACKBONE|DICT|INTERRES
    95   49   50 1    
    96   49  115 1    
    97   50   51 1    
    98   50   52 1    
    99   50  116 1    
   100   51  117 1    
   101   51  118 1    
   102   51  119 1    
   103   52   53 2    
   104   52   54 am   BACKBONE|DICT|INTERRES
   105   54   55 1    
   106   54  120 1    
   107   55   56 1    
   108   55   57 1    
   109   55  121 1    
   110   56  122 1    
   111   56  123 1    
   112   56  124 1    
   113   57   58 2    
   114   57   59 am   BACKBONE|DICT|INTERRES
   115   59   60 1    
   116   59  125 1    
   117   60   61 1    
   118   60   62 1    
   119   60  126 1    
   120   61  127 1    
   121   61  128 1    
   122   61  129 1    
   123   62   63 2    
   124   62   64 am   BACKBONE|DICT|INTERRES
   125   64   65 1    
   126   64  130 1    
   127   65   66 1    
   128   65   69 1    
   129   65  131 1    
   130   66   67 am   BACKBONE|DICT|INTERRES
   131   66   68 2    
   132   67  132 1    
   133   67  133 1    
   134   69   70 1    
   135   69  134 1    
   136   69  135 1    
   137   70   71 1    
   138   71  136 1    
   139   71  137 1    
@<TRIPOS>SUBSTRUCTURE
     1 UNK         1 GROUP             0       ****    0 ROOT    
