@<TRIPOS>MOLECULE
3R136
137   139    1
SMALL
USER_CHARGES


@<TRIPOS>ATOM
      1 CA         33.9545   25.3952   -0.8381 C.3       0 UNK        -0.1979 
      2 C          32.5243   24.8771   -0.8395 C.2       0 UNK         0.4864 
      3 O          32.1001   24.2538   -1.8140 O.2       0 UNK        -0.5359 
      4 N          31.7746   25.1431    0.2401 N.am      1 UNK        -0.4318 
      5 CA         30.3785   24.7509    0.4945 C.3       1 UNK         0.0824 
      6 C6         30.1941   23.2102    0.5005 C.3       12 UNK        -0.0944 
      7 S7         28.8186   22.6387    1.5485 S.3       12 UNK        -0.2672 
      8 C8         29.6039   22.5055    3.1893 C.3       12 UNK         0.0333 
      9 C9         29.3276   23.7292    4.0538 C.ar      12 UNK        -0.0807 
     10 C10        30.2731   24.7541    4.1730 C.ar      12 UNK        -0.0894 
     11 C11        30.0133   25.8681    4.9784 C.ar      12 UNK        -0.0804 
     12 C12        28.8081   25.9430    5.6833 C.ar      12 UNK        -0.0824 
     13 C13        27.8628   24.9177    5.5864 C.ar      12 UNK        -0.0762 
     14 C14        28.1258   23.8182    4.7642 C.ar      12 UNK        -0.0782 
     15 C15        26.5685   24.9845    6.3868 C.3       12 UNK         0.0230 
     16 S16        25.1312   25.4040    5.3498 S.3       12 UNK        -0.2608 
     17 C17        25.5385   27.1020    4.8217 C.3       12 UNK        -0.0989 
     18 CA         26.1518   27.1610    3.3956 C.3       5 UNK         0.0716 
     19 N          25.2272   26.6858    2.3600 N.am      5 UNK        -0.4135 
     20 C          25.3252   25.5208    1.7116 C.2       4 UNK         0.5031 
     21 O          26.1083   24.6248    2.0228 O.2       4 UNK        -0.5229 
     22 CA         24.4277   25.3215    0.4813 C.3       4 UNK         0.0329 
     23 CB         23.7359   26.6090   -0.0261 C.3       4 UNK        -0.2001 
     24 N          25.2653   24.7491   -0.5680 N.am      4 UNK        -0.4303 
     25 C          24.8418   24.0583   -1.6312 C.2       3 UNK         0.5044 
     26 O          23.6534   23.8225   -1.8586 O.2       3 UNK        -0.5152 
     27 CA         25.9261   23.5241   -2.5933 C.3       3 UNK         0.0319 
     28 CB         25.4073   23.3614   -4.0384 C.3       3 UNK        -0.2001 
     29 N          27.1822   24.2899   -2.5769 N.am      3 UNK        -0.4354 
     30 C          27.3569   25.5856   -2.8870 C.2       2 UNK         0.4964 
     31 O          26.4479   26.3349   -3.2474 O.2       2 UNK        -0.5047 
     32 CA         28.7984   26.1260   -2.7764 C.3       2 UNK         0.0288 
     33 CB         28.8613   27.6629   -2.6377 C.3       2 UNK        -0.2113 
     34 N          29.5878   25.4809   -1.7187 N.am      2 UNK        -0.4145 
     35 C          29.3499   25.4829   -0.3991 C.2       1 UNK         0.5006 
     36 O          28.3912   26.0584    0.1207 O.2       1 UNK        -0.5103 
     37 C          26.6331   28.5805    3.0235 C.2       5 UNK         0.5055 
     38 O          26.9184   29.3869    3.9100 O.2       5 UNK        -0.5220 
     39 N          26.6789   28.8838    1.7166 N.am      6 UNK        -0.4450 
     40 CA         26.9770   30.2147    1.1815 C.3       6 UNK         0.0367 
     41 CB         26.4080   30.3241   -0.2425 C.3       6 UNK        -0.1929 
     42 C          28.4746   30.5582    1.1943 C.2       6 UNK         0.5070 
     43 O          28.8207   31.7401    1.1719 O.2       6 UNK        -0.5237 
     44 N          29.3425   29.5387    1.2368 N.am      7 UNK        -0.4739 
     45 CA         30.8019   29.6666    1.2273 C.3       7 UNK         0.0276 
     46 CB         31.4087   28.3433    0.7409 C.3       7 UNK        -0.1927 
     47 C          31.3764   30.1033    2.5895 C.2       7 UNK         0.5013 
     48 O          32.2609   29.4377    3.1338 O.2       7 UNK        -0.5193 
     49 N          30.8977   31.2408    3.1078 N.am      8 UNK        -0.4253 
     50 CA         31.3530   31.8566    4.3592 C.3       8 UNK         0.0242 
     51 CB         30.5143   33.1112    4.6475 C.3       8 UNK        -0.2000 
     52 C          32.8552   32.1930    4.3645 C.2       8 UNK         0.4948 
     53 O          33.4899   32.1016    5.4136 O.2       8 UNK        -0.5275 
     54 N          33.4070   32.5182    3.1867 N.am      9 UNK        -0.4246 
     55 CA         34.8380   32.7323    2.9632 C.3       9 UNK         0.0261 
     56 CB         35.0417   33.3669    1.5777 C.3       9 UNK        -0.1959 
     57 C          35.6886   31.4537    3.0983 C.2       9 UNK         0.5033 
     58 O          36.8785   31.5668    3.3961 O.2       9 UNK        -0.5390 
     59 N          35.0878   30.2737    2.8777 N.am      10 UNK        -0.4215 
     60 CA         35.7434   28.9770    3.0585 C.3       10 UNK         0.0240 
     61 CB         35.1086   27.9247    2.1331 C.3       10 UNK        -0.1982 
     62 C          35.6774   28.5286    4.5249 C.2       10 UNK         0.4970 
     63 O          36.6845   28.0548    5.0524 O.2       10 UNK        -0.4916 
     64 N          34.5053   28.6922    5.1546 N.am      11 UNK        -0.4279 
     65 CA         34.2961   28.4099    6.5829 C.3       11 UNK         0.1003 
     66 C          35.0334   29.3934    7.5357 C.2       11 UNK         0.5709 
     67 N          35.1462   30.6739    7.2095 N.am      11 UNK        -0.7358 
     68 O          35.5201   28.9819    8.5863 O.2       11 UNK        -0.4999 
     69 C69        32.7888   28.3066    6.9312 C.3       12 UNK        -0.0954 
     70 S70        32.1158   26.6572    6.5468 S.3       12 UNK        -0.2268 
     71 C71        31.0402   26.9811    5.1195 C.3       12 UNK         0.0203 
     72 H72        34.0866   26.1330   -1.6290 H         1 UNK         0.0888 
     73 H73        34.2191   25.8619    0.1101 H         1 UNK         0.0888 
     74 H74        34.6500   24.5756   -1.0164 H         1 UNK         0.0888 
     75 H75        32.2016   25.6681    0.9893 H         1 UNK         0.3017 
     76 H76        30.1798   25.1118    1.5022 H         1 UNK         0.0873 
     77 H77        30.0419   22.8298   -0.5111 H         1 UNK         0.0745 
     78 H78        31.1042   22.7220    0.8522 H         1 UNK         0.0745 
     79 H79        29.2101   21.6183    3.6874 H         1 UNK         0.0705 
     80 H80        30.6772   22.3378    3.0910 H         1 UNK         0.0705 
     81 H81        31.2143   24.6825    3.6456 H         1 UNK         0.1334 
     82 H82        28.6145   26.7957    6.3198 H         1 UNK         0.1417 
     83 H83        27.3905   23.0299    4.6752 H         1 UNK         0.1562 
     84 H84        26.6511   25.7066    7.2007 H         1 UNK         0.0748 
     85 H85        26.3885   24.0177    6.8590 H         1 UNK         0.0748 
     86 H86        26.2162   27.5381    5.5577 H         1 UNK         0.0940 
     87 H87        24.6268   27.7004    4.8662 H         1 UNK         0.0940 
     88 H88        27.0544   26.5465    3.3853 H         1 UNK         0.0703 
     89 H89        24.5313   27.3513    2.0548 H         1 UNK         0.3081 
     90 H90        23.6632   24.5934    0.7599 H         1 UNK         0.0719 
     91 H91        24.4591   27.3751   -0.3090 H         1 UNK         0.0809 
     92 H92        23.1217   26.4051   -0.9034 H         1 UNK         0.0809 
     93 H93        23.0682   27.0301    0.7263 H         1 UNK         0.0809 
     94 H94        26.2621   24.8532   -0.4172 H         1 UNK         0.2990 
     95 H95        26.1795   22.5291   -2.2246 H         1 UNK         0.0690 
     96 H96        26.1799   22.9623   -4.6955 H         1 UNK         0.0788 
     97 H97        25.0687   24.3104   -4.4554 H         1 UNK         0.0788 
     98 H98        24.5640   22.6706   -4.0779 H         1 UNK         0.0788 
     99 H99        27.9994   23.7717   -2.2863 H         1 UNK         0.2993 
    100 H100       29.2825   25.8640   -3.7184 H         1 UNK         0.0949 
    101 H101       28.3793   28.0051   -1.7227 H         1 UNK         0.0767 
    102 H102       29.8923   28.0163   -2.6235 H         1 UNK         0.0767 
    103 H103       28.3639   28.1563   -3.4736 H         1 UNK         0.0767 
    104 H104       30.4303   24.9917   -2.0199 H         1 UNK         0.3013 
    105 H105       26.4985   28.1514    1.0446 H         1 UNK         0.3121 
    106 H106       26.4719   30.9580    1.8026 H         1 UNK         0.0774 
    107 H107       26.8493   29.5895   -0.9155 H         1 UNK         0.0815 
    108 H108       26.6026   31.3107   -0.6656 H         1 UNK         0.0815 
    109 H109       25.3276   30.1793   -0.2502 H         1 UNK         0.0815 
    110 H110       28.9696   28.6006    1.2769 H         1 UNK         0.2987 
    111 H111       31.0758   30.4389    0.5049 H         1 UNK         0.0949 
    112 H112       31.2076   27.5422    1.4516 H         1 UNK         0.0806 
    113 H113       31.0062   28.0540   -0.2298 H         1 UNK         0.0806 
    114 H114       32.4900   28.4255    0.6276 H         1 UNK         0.0806 
    115 H115       30.1613   31.7131    2.5902 H         1 UNK         0.3010 
    116 H116       31.1789   31.1352    5.1603 H         1 UNK         0.0829 
    117 H117       29.4553   32.8677    4.7366 H         1 UNK         0.0813 
    118 H118       30.8187   33.5769    5.5860 H         1 UNK         0.0813 
    119 H119       30.6219   33.8593    3.8611 H         1 UNK         0.0813 
    120 H120       32.8038   32.5831    2.3798 H         1 UNK         0.3038 
    121 H121       35.1918   33.4385    3.7176 H         1 UNK         0.0769 
    122 H122       34.6906   32.7140    0.7776 H         1 UNK         0.0811 
    123 H123       36.0979   33.5686    1.3929 H         1 UNK         0.0811 
    124 H124       34.5140   34.3172    1.4939 H         1 UNK         0.0811 
    125 H125       34.0903   30.2513    2.7007 H         1 UNK         0.3204 
    126 H126       36.7957   29.0685    2.7802 H         1 UNK         0.0748 
    127 H127       35.6575   26.9837    2.1880 H         1 UNK         0.0771 
    128 H128       34.0752   27.7090    2.4039 H         1 UNK         0.0771 
    129 H129       35.1253   28.2491    1.0926 H         1 UNK         0.0771 
    130 H130       33.7143   29.0584    4.6391 H         1 UNK         0.2980 
    131 H131       34.7473   27.4350    6.7807 H         1 UNK         0.0545 
    132 H132       35.6345   31.2944    7.8343 H         1 UNK         0.3459 
    133 H133       34.6549   31.0591    6.4068 H         1 UNK         0.3459 
    134 H134       32.6209   28.4551    7.9999 H         1 UNK         0.0616 
    135 H135       32.2158   29.0883    6.4299 H         1 UNK         0.0616 
    136 H136       30.5326   27.9396    5.2384 H         1 UNK         0.0634 
    137 H137       31.6501   27.0588    4.2185 H         1 UNK         0.0634 
@<TRIPOS>BOND
     1    1    2 1    
     2    1   72 1    
     3    1   73 1    
     4    1   74 1    
     5    2    3 2    
     6    2    4 am   BACKBONE|DICT|INTERRES
     7    4    5 1    
     8    4   75 1    
     9    5    6 1    
    10    5   35 1    
    11    5   76 1    
    12    6    7 1    
    13    6   77 1    
    14    6   78 1    
    15    7    8 1    
    16    8    9 1    
    17    8   79 1    
    18    8   80 1    
    19    9   10 ar   
    20    9   14 ar   
    21   10   11 ar   
    22   10   81 1    
    23   11   12 ar   
    24   11   71 1    
    25   12   13 ar   
    26   12   82 1    
    27   13   14 ar   
    28   13   15 1    
    29   14   83 1    
    30   15   16 1    
    31   15   84 1    
    32   15   85 1    
    33   16   17 1    
    34   17   18 1    
    35   17   86 1    
    36   17   87 1    
    37   18   19 1    
    38   18   37 1    
    39   18   88 1    
    40   19   20 am   BACKBONE|DICT|INTERRES
    41   19   89 1    
    42   20   21 2    
    43   20   22 1    
    44   22   23 1    
    45   22   24 1    
    46   22   90 1    
    47   23   91 1    
    48   23   92 1    
    49   23   93 1    
    50   24   25 am   BACKBONE|DICT|INTERRES
    51   24   94 1    
    52   25   26 2    
    53   25   27 1    
    54   27   28 1    
    55   27   29 1    
    56   27   95 1    
    57   28   96 1    
    58   28   97 1    
    59   28   98 1    
    60   29   30 am   BACKBONE|DICT|INTERRES
    61   29   99 1    
    62   30   31 2    
    63   30   32 1    
    64   32   33 1    
    65   32   34 1    
    66   32  100 1    
    67   33  101 1    
    68   33  102 1    
    69   33  103 1    
    70   34   35 am   BACKBONE|DICT|INTERRES
    71   34  104 1    
    72   35   36 2    
    73   37   38 2    
    74   37   39 am   BACKBONE|DICT|INTERRES
    75   39   40 1    
    76   39  105 1    
    77   40   41 1    
    78   40   42 1    
    79   40  106 1    
    80   41  107 1    
    81   41  108 1    
    82   41  109 1    
    83   42   43 2    
    84   42   44 am   BACKBONE|DICT|INTERRES
    85   44   45 1    
    86   44  110 1    
    87   45   46 1    
    88   45   47 1    
    89   45  111 1    
    90   46  112 1    
    91   46  113 1    
    92   46  114 1    
    93   47   48 2    
    94   47   49 am   BACKBONE|DICT|INTERRES
    95   49   50 1    
    96   49  115 1    
    97   50   51 1    
    98   50   52 1    
    99   50  116 1    
   100   51  117 1    
   101   51  118 1    
   102   51  119 1    
   103   52   53 2    
   104   52   54 am   BACKBONE|DICT|INTERRES
   105   54   55 1    
   106   54  120 1    
   107   55   56 1    
   108   55   57 1    
   109   55  121 1    
   110   56  122 1    
   111   56  123 1    
   112   56  124 1    
   113   57   58 2    
   114   57   59 am   BACKBONE|DICT|INTERRES
   115   59   60 1    
   116   59  125 1    
   117   60   61 1    
   118   60   62 1    
   119   60  126 1    
   120   61  127 1    
   121   61  128 1    
   122   61  129 1    
   123   62   63 2    
   124   62   64 am   BACKBONE|DICT|INTERRES
   125   64   65 1    
   126   64  130 1    
   127   65   66 1    
   128   65   69 1    
   129   65  131 1    
   130   66   67 am   BACKBONE|DICT|INTERRES
   131   66   68 2    
   132   67  132 1    
   133   67  133 1    
   134   69   70 1    
   135   69  134 1    
   136   69  135 1    
   137   70   71 1    
   138   71  136 1    
   139   71  137 1    
@<TRIPOS>SUBSTRUCTURE
     1 UNK         1 GROUP             0       ****    0 ROOT    
