@<TRIPOS>MOLECULE
3R136
137   139    1
SMALL
USER_CHARGES


@<TRIPOS>ATOM
      1 CA         31.7742   21.1255    0.9437 C.3       0 UNK        -0.1979 
      2 C          30.6270   21.6480    0.0925 C.2       0 UNK         0.4864 
      3 O          29.7338   20.8833   -0.2766 O.2       0 UNK        -0.5359 
      4 N          30.6322   22.9516   -0.2124 N.am      1 UNK        -0.4318 
      5 CA         29.5988   23.6701   -0.9626 C.3       1 UNK         0.0824 
      6 C6         30.1835   24.9149   -1.6949 C.3       12 UNK        -0.0944 
      7 S7         30.7857   26.3268   -0.6907 S.3       12 UNK        -0.2672 
      8 C8         32.3817   25.7430   -0.0168 C.3       12 UNK         0.0333 
      9 C9         32.3179   25.0774    1.3636 C.ar      12 UNK        -0.0807 
     10 C10        33.4888   24.5202    1.8890 C.ar      12 UNK        -0.0894 
     11 C11        33.4901   23.9063    3.1448 C.ar      12 UNK        -0.0804 
     12 C12        32.2988   23.8318    3.8705 C.ar      12 UNK        -0.0824 
     13 C13        31.1202   24.3960    3.3799 C.ar      12 UNK        -0.0762 
     14 C14        31.1426   25.0211    2.1277 C.ar      12 UNK        -0.0782 
     15 C15        29.8541   24.2656    4.2300 C.3       12 UNK         0.0230 
     16 S16        28.3895   25.1919    3.6538 S.3       12 UNK        -0.2608 
     17 C17        28.7674   26.9023    4.1531 C.3       12 UNK        -0.0989 
     18 CA         28.9187   27.8920    2.9672 C.3       5 UNK         0.0716 
     19 N          27.8321   27.7825    1.9756 N.am      5 UNK        -0.4135 
     20 C          27.6878   28.5571    0.8883 C.2       4 UNK         0.5031 
     21 O          28.4051   29.5295    0.6554 O.2       4 UNK        -0.5229 
     22 CA         26.5567   28.2461   -0.1059 C.3       4 UNK         0.0329 
     23 CB         27.0531   28.3510   -1.5611 C.3       4 UNK        -0.2001 
     24 N          25.9404   26.9299    0.0805 N.am      4 UNK        -0.4303 
     25 C          24.6182   26.7045    0.0578 C.2       3 UNK         0.5044 
     26 O          23.7773   27.6047    0.0816 O.2       3 UNK        -0.5152 
     27 CA         24.1217   25.2492   -0.0643 C.3       3 UNK         0.0319 
     28 CB         23.5137   25.0109   -1.4573 C.3       3 UNK        -0.2001 
     29 N          25.1590   24.2427    0.1655 N.am      3 UNK        -0.4354 
     30 C          25.5456   23.8177    1.3739 C.2       2 UNK         0.4964 
     31 O          25.0382   24.2070    2.4262 O.2       2 UNK        -0.5047 
     32 CA         26.6838   22.7799    1.4277 C.3       2 UNK         0.0288 
     33 CB         26.0998   21.3577    1.4448 C.3       2 UNK        -0.2113 
     34 N          27.7141   22.8539    0.3798 N.am      2 UNK        -0.4145 
     35 C          28.3603   23.9393   -0.0741 C.2       1 UNK         0.5006 
     36 O          28.0330   25.0909    0.2056 O.2       1 UNK        -0.5103 
     37 C          29.1114   29.3178    3.5263 C.2       5 UNK         0.5055 
     38 O          30.2428   29.8034    3.5868 O.2       5 UNK        -0.5220 
     39 N          27.9997   29.9592    3.9139 N.am      6 UNK        -0.4450 
     40 CA         27.9762   31.3166    4.4628 C.3       6 UNK         0.0367 
     41 CB         26.6626   31.5333    5.2309 C.3       6 UNK        -0.1929 
     42 C          28.1549   32.4034    3.3902 C.2       6 UNK         0.5070 
     43 O          28.7308   33.4487    3.6885 O.2       6 UNK        -0.5237 
     44 N          27.6734   32.1425    2.1666 N.am      7 UNK        -0.4739 
     45 CA         27.8014   33.0420    1.0156 C.3       7 UNK         0.0276 
     46 CB         26.8091   32.6244   -0.0823 C.3       7 UNK        -0.1927 
     47 C          29.2387   33.0745    0.4739 C.2       7 UNK         0.5013 
     48 O          29.7461   34.1493    0.1523 O.2       7 UNK        -0.5193 
     49 N          29.8755   31.8975    0.4208 N.am      8 UNK        -0.4253 
     50 CA         31.2875   31.7169    0.0849 C.3       8 UNK         0.0242 
     51 CB         31.5276   30.2334   -0.2452 C.3       8 UNK        -0.2000 
     52 C          32.2393   32.1716    1.2068 C.2       8 UNK         0.4948 
     53 O          33.4136   32.4117    0.9235 O.2       8 UNK        -0.5275 
     54 N          31.7261   32.2553    2.4462 N.am      9 UNK        -0.4246 
     55 CA         32.4460   32.4929    3.7045 C.3       9 UNK         0.0261 
     56 CB         33.0265   33.9220    3.7532 C.3       9 UNK        -0.1959 
     57 C          33.4955   31.3929    3.9537 C.2       9 UNK         0.5033 
     58 O          34.6687   31.6882    4.1948 O.2       9 UNK        -0.5390 
     59 N          33.0441   30.1402    3.8207 N.am      10 UNK        -0.4215 
     60 CA         33.8688   28.9364    3.8101 C.3       10 UNK         0.0240 
     61 CB         33.2899   27.9682    2.7645 C.3       10 UNK        -0.1982 
     62 C          34.0118   28.3222    5.2155 C.2       10 UNK         0.4970 
     63 O          34.0997   29.0591    6.1996 O.2       10 UNK        -0.4916 
     64 N          34.0833   26.9858    5.2822 N.am      11 UNK        -0.4279 
     65 CA         34.4193   26.2073    6.4866 C.3       11 UNK         0.1003 
     66 C          33.3739   26.2625    7.6398 C.2       11 UNK         0.5709 
     67 N          32.1536   26.7323    7.4096 N.am      11 UNK        -0.7358 
     68 O          33.6790   25.8692    8.7633 O.2       11 UNK        -0.4999 
     69 C69        34.7899   24.7308    6.1612 C.3       12 UNK        -0.0954 
     70 S70        35.7749   24.4995    4.6361 S.3       12 UNK        -0.2268 
     71 C71        34.7694   23.2953    3.7036 C.3       12 UNK         0.0203 
     72 H72        31.4230   20.9069    1.9518 H         1 UNK         0.0888 
     73 H73        32.1759   20.2084    0.5138 H         1 UNK         0.0888 
     74 H74        32.5871   21.8472    1.0160 H         1 UNK         0.0888 
     75 H75        31.3548   23.5410    0.1784 H         1 UNK         0.3017 
     76 H76        29.2498   23.0011   -1.7525 H         1 UNK         0.0873 
     77 H77        30.9956   24.5993   -2.3516 H         1 UNK         0.0745 
     78 H78        29.4209   25.3153   -2.3651 H         1 UNK         0.0745 
     79 H79        32.8483   25.0655   -0.7334 H         1 UNK         0.0705 
     80 H80        33.0423   26.6077    0.0559 H         1 UNK         0.0705 
     81 H81        34.4078   24.5686    1.3199 H         1 UNK         0.1334 
     82 H82        32.2815   23.3248    4.8249 H         1 UNK         0.1417 
     83 H83        30.2320   25.4482    1.7392 H         1 UNK         0.1562 
     84 H84        30.0719   24.5560    5.2590 H         1 UNK         0.0748 
     85 H85        29.5818   23.2098    4.2629 H         1 UNK         0.0748 
     86 H86        29.6748   26.9062    4.7604 H         1 UNK         0.0940 
     87 H87        27.9620   27.2177    4.8196 H         1 UNK         0.0940 
     88 H88        29.8368   27.6438    2.4322 H         1 UNK         0.0703 
     89 H89        27.2252   26.9817    2.0778 H         1 UNK         0.3081 
     90 H90        25.8157   29.0320    0.0516 H         1 UNK         0.0719 
     91 H91        27.8357   27.6189   -1.7663 H         1 UNK         0.0809 
     92 H92        26.2427   28.1849   -2.2707 H         1 UNK         0.0809 
     93 H93        27.4663   29.3382   -1.7722 H         1 UNK         0.0809 
     94 H94        26.5876   26.1408    0.0932 H         1 UNK         0.2990 
     95 H95        23.3287   25.1155    0.6748 H         1 UNK         0.0690 
     96 H96        23.0981   24.0067   -1.5429 H         1 UNK         0.0788 
     97 H97        24.2543   25.1380   -2.2481 H         1 UNK         0.0788 
     98 H98        22.7019   25.7122   -1.6561 H         1 UNK         0.0788 
     99 H99        25.6360   23.8800   -0.6470 H         1 UNK         0.2993 
    100 H100       27.2000   22.9318    2.3758 H         1 UNK         0.0949 
    101 H101       25.6151   21.1112    0.4993 H         1 UNK         0.0767 
    102 H102       26.8741   20.6126    1.6296 H         1 UNK         0.0767 
    103 H103       25.3537   21.2484    2.2335 H         1 UNK         0.0767 
    104 H104       28.1138   21.9626    0.0999 H         1 UNK         0.3013 
    105 H105       27.1128   29.4845    3.8247 H         1 UNK         0.3121 
    106 H106       28.8023   31.4152    5.1711 H         1 UNK         0.0774 
    107 H107       25.7917   31.4380    4.5811 H         1 UNK         0.0815 
    108 H108       26.6305   32.5301    5.6733 H         1 UNK         0.0815 
    109 H109       26.5557   30.8165    6.0452 H         1 UNK         0.0815 
    110 H110       27.2669   31.2351    1.9913 H         1 UNK         0.2987 
    111 H111       27.5454   34.0535    1.3396 H         1 UNK         0.0949 
    112 H112       27.0085   31.6178   -0.4513 H         1 UNK         0.0806 
    113 H113       25.7815   32.6516    0.2803 H         1 UNK         0.0806 
    114 H114       26.8684   33.3005   -0.9364 H         1 UNK         0.0806 
    115 H115       29.3492   31.0505    0.6376 H         1 UNK         0.3010 
    116 H116       31.5116   32.3120   -0.8028 H         1 UNK         0.0829 
    117 H117       32.5698   30.0510   -0.5103 H         1 UNK         0.0813 
    118 H118       31.2870   29.5895    0.6022 H         1 UNK         0.0813 
    119 H119       30.9161   29.9095   -1.0876 H         1 UNK         0.0813 
    120 H120       30.7533   32.0018    2.5517 H         1 UNK         0.3038 
    121 H121       31.7082   32.4067    4.5039 H         1 UNK         0.0769 
    122 H122       33.8033   34.0725    3.0031 H         1 UNK         0.0811 
    123 H123       33.4722   34.1269    4.7272 H         1 UNK         0.0811 
    124 H124       32.2501   34.6690    3.5873 H         1 UNK         0.0811 
    125 H125       32.0425   30.0049    3.6832 H         1 UNK         0.3204 
    126 H126       34.8766   29.2024    3.4842 H         1 UNK         0.0748 
    127 H127       33.9744   27.1412    2.5799 H         1 UNK         0.0771 
    128 H128       32.3289   27.5575    3.0767 H         1 UNK         0.0771 
    129 H129       33.1410   28.4665    1.8067 H         1 UNK         0.0771 
    130 H130       33.9996   26.4477    4.4321 H         1 UNK         0.2980 
    131 H131       35.3203   26.6722    6.8914 H         1 UNK         0.0545 
    132 H132       31.9076   27.0770    6.4970 H         1 UNK         0.3459 
    133 H133       31.4873   26.7666    8.1644 H         1 UNK         0.3459 
    134 H134       33.8930   24.1171    6.1044 H         1 UNK         0.0616 
    135 H135       35.3673   24.3113    6.9869 H         1 UNK         0.0616 
    136 H136       35.3727   22.9008    2.8847 H         1 UNK         0.0634 
    137 H137       34.5381   22.4424    4.3437 H         1 UNK         0.0634 
@<TRIPOS>BOND
     1    1    2 1    
     2    1   72 1    
     3    1   73 1    
     4    1   74 1    
     5    2    3 2    
     6    2    4 am   BACKBONE|DICT|INTERRES
     7    4    5 1    
     8    4   75 1    
     9    5    6 1    
    10    5   35 1    
    11    5   76 1    
    12    6    7 1    
    13    6   77 1    
    14    6   78 1    
    15    7    8 1    
    16    8    9 1    
    17    8   79 1    
    18    8   80 1    
    19    9   10 ar   
    20    9   14 ar   
    21   10   11 ar   
    22   10   81 1    
    23   11   12 ar   
    24   11   71 1    
    25   12   13 ar   
    26   12   82 1    
    27   13   14 ar   
    28   13   15 1    
    29   14   83 1    
    30   15   16 1    
    31   15   84 1    
    32   15   85 1    
    33   16   17 1    
    34   17   18 1    
    35   17   86 1    
    36   17   87 1    
    37   18   19 1    
    38   18   37 1    
    39   18   88 1    
    40   19   20 am   BACKBONE|DICT|INTERRES
    41   19   89 1    
    42   20   21 2    
    43   20   22 1    
    44   22   23 1    
    45   22   24 1    
    46   22   90 1    
    47   23   91 1    
    48   23   92 1    
    49   23   93 1    
    50   24   25 am   BACKBONE|DICT|INTERRES
    51   24   94 1    
    52   25   26 2    
    53   25   27 1    
    54   27   28 1    
    55   27   29 1    
    56   27   95 1    
    57   28   96 1    
    58   28   97 1    
    59   28   98 1    
    60   29   30 am   BACKBONE|DICT|INTERRES
    61   29   99 1    
    62   30   31 2    
    63   30   32 1    
    64   32   33 1    
    65   32   34 1    
    66   32  100 1    
    67   33  101 1    
    68   33  102 1    
    69   33  103 1    
    70   34   35 am   BACKBONE|DICT|INTERRES
    71   34  104 1    
    72   35   36 2    
    73   37   38 2    
    74   37   39 am   BACKBONE|DICT|INTERRES
    75   39   40 1    
    76   39  105 1    
    77   40   41 1    
    78   40   42 1    
    79   40  106 1    
    80   41  107 1    
    81   41  108 1    
    82   41  109 1    
    83   42   43 2    
    84   42   44 am   BACKBONE|DICT|INTERRES
    85   44   45 1    
    86   44  110 1    
    87   45   46 1    
    88   45   47 1    
    89   45  111 1    
    90   46  112 1    
    91   46  113 1    
    92   46  114 1    
    93   47   48 2    
    94   47   49 am   BACKBONE|DICT|INTERRES
    95   49   50 1    
    96   49  115 1    
    97   50   51 1    
    98   50   52 1    
    99   50  116 1    
   100   51  117 1    
   101   51  118 1    
   102   51  119 1    
   103   52   53 2    
   104   52   54 am   BACKBONE|DICT|INTERRES
   105   54   55 1    
   106   54  120 1    
   107   55   56 1    
   108   55   57 1    
   109   55  121 1    
   110   56  122 1    
   111   56  123 1    
   112   56  124 1    
   113   57   58 2    
   114   57   59 am   BACKBONE|DICT|INTERRES
   115   59   60 1    
   116   59  125 1    
   117   60   61 1    
   118   60   62 1    
   119   60  126 1    
   120   61  127 1    
   121   61  128 1    
   122   61  129 1    
   123   62   63 2    
   124   62   64 am   BACKBONE|DICT|INTERRES
   125   64   65 1    
   126   64  130 1    
   127   65   66 1    
   128   65   69 1    
   129   65  131 1    
   130   66   67 am   BACKBONE|DICT|INTERRES
   131   66   68 2    
   132   67  132 1    
   133   67  133 1    
   134   69   70 1    
   135   69  134 1    
   136   69  135 1    
   137   70   71 1    
   138   71  136 1    
   139   71  137 1    
@<TRIPOS>SUBSTRUCTURE
     1 UNK         1 GROUP             0       ****    0 ROOT    
