@<TRIPOS>MOLECULE
3R136
137   139    1
SMALL
USER_CHARGES


@<TRIPOS>ATOM
      1 CA         31.1557   21.7999   -4.3075 C.3       0 UNK        -0.1979 
      2 C          30.7003   22.9428   -3.4121 C.2       0 UNK         0.4864 
      3 O          30.3640   24.0147   -3.9162 O.2       0 UNK        -0.5359 
      4 N          30.6945   22.7218   -2.0898 N.am      1 UNK        -0.4318 
      5 CA         30.2543   23.6882   -1.0769 C.3       1 UNK         0.0824 
      6 C6         30.6952   23.2446    0.3377 C.3       12 UNK        -0.0944 
      7 S7         30.5016   24.5613    1.5783 S.3       12 UNK        -0.2672 
      8 C8         29.9615   23.5897    3.0156 C.3       12 UNK         0.0333 
      9 C9         29.6220   24.5165    4.1669 C.ar      12 UNK        -0.0807 
     10 C10        30.6230   24.9672    5.0303 C.ar      12 UNK        -0.0894 
     11 C11        30.3251   25.8851    6.0410 C.ar      12 UNK        -0.0804 
     12 C12        29.0137   26.3508    6.1836 C.ar      12 UNK        -0.0824 
     13 C13        28.0000   25.8972    5.3308 C.ar      12 UNK        -0.0762 
     14 C14        28.3101   24.9602    4.3396 C.ar      12 UNK        -0.0782 
     15 C15        26.5801   26.4388    5.4832 C.3       12 UNK         0.0230 
     16 S16        25.7320   26.7726    3.8969 S.3       12 UNK        -0.2608 
     17 C17        26.9081   27.8874    3.0540 C.3       12 UNK        -0.0989 
     18 CA         27.4245   27.2996    1.7074 C.3       5 UNK         0.0716 
     19 N          26.3570   27.0677    0.7279 N.am      5 UNK        -0.4135 
     20 C          25.5847   28.0031    0.1485 C.2       4 UNK         0.5031 
     21 O          25.6849   29.2119    0.3627 O.2       4 UNK        -0.5229 
     22 CA         24.5125   27.5287   -0.8517 C.3       4 UNK         0.0329 
     23 CB         25.0033   27.7424   -2.2935 C.3       4 UNK        -0.2001 
     24 N          24.1382   26.1256   -0.6846 N.am      4 UNK        -0.4303 
     25 C          23.4781   25.6090    0.3626 C.2       3 UNK         0.5044 
     26 O          22.9683   26.2879    1.2537 O.2       3 UNK        -0.5152 
     27 CA         23.3902   24.0702    0.4363 C.3       3 UNK         0.0319 
     28 CB         21.9708   23.5923    0.0889 C.3       3 UNK        -0.2001 
     29 N          24.3543   23.3878   -0.4377 N.am      3 UNK        -0.4354 
     30 C          25.6872   23.4315   -0.2943 C.2       2 UNK         0.4964 
     31 O          26.2443   23.9675    0.6664 O.2       2 UNK        -0.5047 
     32 CA         26.5008   22.8071   -1.4469 C.3       2 UNK         0.0288 
     33 CB         26.1153   23.4190   -2.8134 C.3       2 UNK        -0.2113 
     34 N          27.9570   22.8728   -1.2703 N.am      2 UNK        -0.4145 
     35 C          28.7365   23.9629   -1.1649 C.2       1 UNK         0.5006 
     36 O          28.3277   25.1285   -1.1672 O.2       1 UNK        -0.5103 
     37 C          28.5624   28.1412    1.0947 C.2       5 UNK         0.5055 
     38 O          28.9295   29.1771    1.6501 O.2       5 UNK        -0.5220 
     39 N          29.1015   27.7002   -0.0526 N.am      6 UNK        -0.4450 
     40 CA         30.1187   28.4354   -0.8187 C.3       6 UNK         0.0367 
     41 CB         30.3896   27.7147   -2.1479 C.3       6 UNK        -0.1929 
     42 C          31.4369   28.6943   -0.0601 C.2       6 UNK         0.5070 
     43 O          32.1373   29.6541   -0.3827 O.2       6 UNK        -0.5237 
     44 N          31.7412   27.8652    0.9479 N.am      7 UNK        -0.4739 
     45 CA         32.8931   28.0244    1.8380 C.3       7 UNK         0.0276 
     46 CB         33.1987   26.6797    2.5158 C.3       7 UNK        -0.1927 
     47 C          32.7225   29.1245    2.9026 C.2       7 UNK         0.5013 
     48 O          33.7072   29.4343    3.5763 O.2       7 UNK        -0.5193 
     49 N          31.5167   29.7007    3.0604 N.am      8 UNK        -0.4253 
     50 CA         31.1792   30.6871    4.1015 C.3       8 UNK         0.0242 
     51 CB         29.6912   31.0583    4.0176 C.3       8 UNK        -0.2000 
     52 C          32.0464   31.9582    4.1115 C.2       8 UNK         0.4948 
     53 O          32.1641   32.5914    5.1602 O.2       8 UNK        -0.5275 
     54 N          32.6835   32.2818    2.9776 N.am      9 UNK        -0.4246 
     55 CA         33.7135   33.3181    2.8679 C.3       9 UNK         0.0261 
     56 CB         34.0937   33.4938    1.3888 C.3       9 UNK        -0.1959 
     57 C          34.9707   33.0345    3.7177 C.2       9 UNK         0.5033 
     58 O          35.6633   33.9846    4.0861 O.2       9 UNK        -0.5390 
     59 N          35.2399   31.7548    4.0142 N.am      10 UNK        -0.4215 
     60 CA         36.3271   31.3000    4.8761 C.3       10 UNK         0.0240 
     61 CB         37.0874   30.1544    4.1850 C.3       10 UNK        -0.1982 
     62 C          35.7938   30.8542    6.2456 C.2       10 UNK         0.4970 
     63 O          36.3077   31.3244    7.2615 O.2       10 UNK        -0.4916 
     64 N          34.8015   29.9505    6.2619 N.am      11 UNK        -0.4279 
     65 CA         34.2701   29.3443    7.4976 C.3       11 UNK         0.1003 
     66 C          33.2364   30.2025    8.2830 C.2       11 UNK         0.5709 
     67 N          32.7412   31.3156    7.7578 N.am      11 UNK        -0.7358 
     68 O          32.8920   29.8600    9.4119 O.2       11 UNK        -0.4999 
     69 C69        33.8021   27.8793    7.2832 C.3       12 UNK        -0.0954 
     70 S70        32.3877   27.6979    6.1494 S.3       12 UNK        -0.2268 
     71 C71        31.4311   26.3836    6.9581 C.3       12 UNK         0.0203 
     72 H72        32.0216   22.1054   -4.8943 H         1 UNK         0.0888 
     73 H73        31.4305   20.9152   -3.7335 H         1 UNK         0.0888 
     74 H74        30.3579   21.5228   -4.9961 H         1 UNK         0.0888 
     75 H75        31.0006   21.8243   -1.7413 H         1 UNK         0.3017 
     76 H76        30.7652   24.6255   -1.2985 H         1 UNK         0.0873 
     77 H77        31.7510   22.9684    0.3293 H         1 UNK         0.0745 
     78 H78        30.1524   22.3502    0.6494 H         1 UNK         0.0745 
     79 H79        29.0921   22.9871    2.7467 H         1 UNK         0.0705 
     80 H80        30.7505   22.8946    3.3069 H         1 UNK         0.0705 
     81 H81        31.6410   24.6267    4.8975 H         1 UNK         0.1334 
     82 H82        28.7860   27.0746    6.9543 H         1 UNK         0.1417 
     83 H83        27.5369   24.6056    3.6709 H         1 UNK         0.1562 
     84 H84        26.5859   27.3616    6.0654 H         1 UNK         0.0748 
     85 H85        25.9901   25.7186    6.0512 H         1 UNK         0.0748 
     86 H86        27.7451   28.0902    3.7240 H         1 UNK         0.0940 
     87 H87        26.4208   28.8510    2.8974 H         1 UNK         0.0940 
     88 H88        27.8606   26.3214    1.9108 H         1 UNK         0.0703 
     89 H89        26.2105   26.0942    0.4857 H         1 UNK         0.3081 
     90 H90        23.6203   28.1383   -0.6939 H         1 UNK         0.0719 
     91 H91        25.2548   28.7896   -2.4681 H         1 UNK         0.0809 
     92 H92        25.8971   27.1541   -2.5073 H         1 UNK         0.0809 
     93 H93        24.2375   27.4701   -3.0201 H         1 UNK         0.0809 
     94 H94        24.4920   25.4820   -1.3761 H         1 UNK         0.2990 
     95 H95        23.6081   23.7831    1.4674 H         1 UNK         0.0690 
     96 H96        21.8738   22.5132    0.2100 H         1 UNK         0.0788 
     97 H97        21.6995   23.8427   -0.9375 H         1 UNK         0.0788 
     98 H98        21.2316   24.0567    0.7434 H         1 UNK         0.0788 
     99 H99        23.9686   22.9100   -1.2400 H         1 UNK         0.2993 
    100 H100       26.2473   21.7458   -1.4647 H         1 UNK         0.0949 
    101 H101       26.2646   24.4993   -2.8316 H         1 UNK         0.0767 
    102 H102       26.7154   22.9919   -3.6174 H         1 UNK         0.0767 
    103 H103       25.0719   23.2277   -3.0654 H         1 UNK         0.0767 
    104 H104       28.4196   21.9761   -1.2315 H         1 UNK         0.3013 
    105 H105       28.7636   26.8259   -0.4526 H         1 UNK         0.3121 
    106 H106       29.6911   29.4130   -1.0511 H         1 UNK         0.0774 
    107 H107       30.8823   26.7562   -1.9948 H         1 UNK         0.0815 
    108 H108       29.4683   27.5348   -2.7023 H         1 UNK         0.0815 
    109 H109       31.0412   28.3124   -2.7867 H         1 UNK         0.0815 
    110 H110       31.1145   27.0967    1.1463 H         1 UNK         0.2987 
    111 H111       33.7595   28.3008    1.2330 H         1 UNK         0.0949 
    112 H112       33.3765   25.8929    1.7827 H         1 UNK         0.0806 
    113 H113       34.0909   26.7483    3.1399 H         1 UNK         0.0806 
    114 H114       32.3788   26.3636    3.1608 H         1 UNK         0.0806 
    115 H115       30.7503   29.4045    2.4626 H         1 UNK         0.3010 
    116 H116       31.3419   30.1999    5.0639 H         1 UNK         0.0829 
    117 H117       29.4383   31.4927    3.0498 H         1 UNK         0.0813 
    118 H118       29.4234   31.7871    4.7839 H         1 UNK         0.0813 
    119 H119       29.0575   30.1854    4.1724 H         1 UNK         0.0813 
    120 H120       32.5220   31.7075    2.1623 H         1 UNK         0.3038 
    121 H121       33.2818   34.2548    3.2267 H         1 UNK         0.0769 
    122 H122       33.2303   33.7788    0.7874 H         1 UNK         0.0811 
    123 H123       34.5102   32.5779    0.9674 H         1 UNK         0.0811 
    124 H124       34.8428   34.2779    1.2690 H         1 UNK         0.0811 
    125 H125       34.5987   31.0304    3.6960 H         1 UNK         0.3204 
    126 H126       37.0377   32.1116    5.0465 H         1 UNK         0.0748 
    127 H127       36.4397   29.3043    3.9670 H         1 UNK         0.0771 
    128 H128       37.5272   30.4862    3.2444 H         1 UNK         0.0771 
    129 H129       37.9022   29.7920    4.8133 H         1 UNK         0.0771 
    130 H130       34.4020   29.6204    5.3882 H         1 UNK         0.2980 
    131 H131       35.1139   29.2646    8.1859 H         1 UNK         0.0545 
    132 H132       32.9687   31.6138    6.8185 H         1 UNK         0.3459 
    133 H133       32.0826   31.8533    8.2974 H         1 UNK         0.3459 
    134 H134       33.5552   27.4224    8.2433 H         1 UNK         0.0616 
    135 H135       34.6259   27.2877    6.8814 H         1 UNK         0.0616 
    136 H136       32.0945   25.5565    7.2160 H         1 UNK         0.0634 
    137 H137       31.0185   26.7598    7.8955 H         1 UNK         0.0634 
@<TRIPOS>BOND
     1    1    2 1    
     2    1   72 1    
     3    1   73 1    
     4    1   74 1    
     5    2    3 2    
     6    2    4 am   BACKBONE|DICT|INTERRES
     7    4    5 1    
     8    4   75 1    
     9    5    6 1    
    10    5   35 1    
    11    5   76 1    
    12    6    7 1    
    13    6   77 1    
    14    6   78 1    
    15    7    8 1    
    16    8    9 1    
    17    8   79 1    
    18    8   80 1    
    19    9   10 ar   
    20    9   14 ar   
    21   10   11 ar   
    22   10   81 1    
    23   11   12 ar   
    24   11   71 1    
    25   12   13 ar   
    26   12   82 1    
    27   13   14 ar   
    28   13   15 1    
    29   14   83 1    
    30   15   16 1    
    31   15   84 1    
    32   15   85 1    
    33   16   17 1    
    34   17   18 1    
    35   17   86 1    
    36   17   87 1    
    37   18   19 1    
    38   18   37 1    
    39   18   88 1    
    40   19   20 am   BACKBONE|DICT|INTERRES
    41   19   89 1    
    42   20   21 2    
    43   20   22 1    
    44   22   23 1    
    45   22   24 1    
    46   22   90 1    
    47   23   91 1    
    48   23   92 1    
    49   23   93 1    
    50   24   25 am   BACKBONE|DICT|INTERRES
    51   24   94 1    
    52   25   26 2    
    53   25   27 1    
    54   27   28 1    
    55   27   29 1    
    56   27   95 1    
    57   28   96 1    
    58   28   97 1    
    59   28   98 1    
    60   29   30 am   BACKBONE|DICT|INTERRES
    61   29   99 1    
    62   30   31 2    
    63   30   32 1    
    64   32   33 1    
    65   32   34 1    
    66   32  100 1    
    67   33  101 1    
    68   33  102 1    
    69   33  103 1    
    70   34   35 am   BACKBONE|DICT|INTERRES
    71   34  104 1    
    72   35   36 2    
    73   37   38 2    
    74   37   39 am   BACKBONE|DICT|INTERRES
    75   39   40 1    
    76   39  105 1    
    77   40   41 1    
    78   40   42 1    
    79   40  106 1    
    80   41  107 1    
    81   41  108 1    
    82   41  109 1    
    83   42   43 2    
    84   42   44 am   BACKBONE|DICT|INTERRES
    85   44   45 1    
    86   44  110 1    
    87   45   46 1    
    88   45   47 1    
    89   45  111 1    
    90   46  112 1    
    91   46  113 1    
    92   46  114 1    
    93   47   48 2    
    94   47   49 am   BACKBONE|DICT|INTERRES
    95   49   50 1    
    96   49  115 1    
    97   50   51 1    
    98   50   52 1    
    99   50  116 1    
   100   51  117 1    
   101   51  118 1    
   102   51  119 1    
   103   52   53 2    
   104   52   54 am   BACKBONE|DICT|INTERRES
   105   54   55 1    
   106   54  120 1    
   107   55   56 1    
   108   55   57 1    
   109   55  121 1    
   110   56  122 1    
   111   56  123 1    
   112   56  124 1    
   113   57   58 2    
   114   57   59 am   BACKBONE|DICT|INTERRES
   115   59   60 1    
   116   59  125 1    
   117   60   61 1    
   118   60   62 1    
   119   60  126 1    
   120   61  127 1    
   121   61  128 1    
   122   61  129 1    
   123   62   63 2    
   124   62   64 am   BACKBONE|DICT|INTERRES
   125   64   65 1    
   126   64  130 1    
   127   65   66 1    
   128   65   69 1    
   129   65  131 1    
   130   66   67 am   BACKBONE|DICT|INTERRES
   131   66   68 2    
   132   67  132 1    
   133   67  133 1    
   134   69   70 1    
   135   69  134 1    
   136   69  135 1    
   137   70   71 1    
   138   71  136 1    
   139   71  137 1    
@<TRIPOS>SUBSTRUCTURE
     1 UNK         1 GROUP             0       ****    0 ROOT    
