@<TRIPOS>MOLECULE
3R136
137   139    1
SMALL
USER_CHARGES


@<TRIPOS>ATOM
      1 CA         27.1146   17.9860    1.9679 C.3       0 UNK        -0.1979 
      2 C          27.1438   19.1111    0.9438 C.2       0 UNK         0.4864 
      3 O          26.5771   18.9667   -0.1407 O.2       0 UNK        -0.5359 
      4 N          27.8068   20.2256    1.2758 N.am      1 UNK        -0.4318 
      5 CA         27.8825   21.4405    0.4603 C.3       1 UNK         0.0824 
      6 C6         29.0284   22.3866    0.9104 C.3       12 UNK        -0.0944 
      7 S7         29.1756   22.6003    2.7231 S.3       12 UNK        -0.2672 
      8 C8         30.9723   22.4370    2.9800 C.3       12 UNK         0.0333 
      9 C9         31.7099   23.7428    2.7107 C.ar      12 UNK        -0.0807 
     10 C10        32.1179   24.5519    3.7764 C.ar      12 UNK        -0.0894 
     11 C11        32.8188   25.7382    3.5388 C.ar      12 UNK        -0.0804 
     12 C12        33.1000   26.1233    2.2249 C.ar      12 UNK        -0.0824 
     13 C13        32.6998   25.3230    1.1522 C.ar      12 UNK        -0.0762 
     14 C14        32.0086   24.1334    1.4014 C.ar      12 UNK        -0.0782 
     15 C15        33.0418   25.7165   -0.2761 C.3       12 UNK         0.0230 
     16 S16        31.6806   26.6231   -1.0722 S.3       12 UNK        -0.2608 
     17 C17        32.0362   28.3592   -0.6122 C.3       12 UNK        -0.0989 
     18 CA         30.8359   29.1142    0.0151 C.3       5 UNK         0.0716 
     19 N          29.6055   28.9062   -0.7530 N.am      5 UNK        -0.4135 
     20 C          28.4249   29.4996   -0.5451 C.2       4 UNK         0.5031 
     21 O          28.2290   30.3455    0.3269 O.2       4 UNK        -0.5229 
     22 CA         27.2429   29.0394   -1.4175 C.3       4 UNK         0.0329 
     23 CB         27.6602   28.2390   -2.6731 C.3       4 UNK        -0.2001 
     24 N          26.2564   28.2800   -0.6400 N.am      4 UNK        -0.4303 
     25 C          26.4756   27.1776    0.0941 C.2       3 UNK         0.5044 
     26 O          27.5888   26.6770    0.2678 O.2       3 UNK        -0.5152 
     27 CA         25.2554   26.5147    0.7656 C.3       3 UNK         0.0319 
     28 CB         23.9242   27.2838    0.5876 C.3       3 UNK        -0.2001 
     29 N          25.1037   25.1189    0.3374 N.am      3 UNK        -0.4354 
     30 C          24.9003   24.6779   -0.9133 C.2       2 UNK         0.4964 
     31 O          24.8066   25.4123   -1.8990 O.2       2 UNK        -0.5047 
     32 CA         24.7943   23.1523   -1.0852 C.3       2 UNK         0.0288 
     33 CB         24.3241   22.7441   -2.4949 C.3       2 UNK        -0.2113 
     34 N          26.0757   22.5018   -0.8108 N.am      2 UNK        -0.4145 
     35 C          26.5171   22.1568    0.4055 C.2       1 UNK         0.5006 
     36 O          25.8934   22.3850    1.4461 O.2       1 UNK        -0.5103 
     37 C          30.6902   28.8275    1.5255 C.2       5 UNK         0.5055 
     38 O          31.3587   29.4890    2.3242 O.2       5 UNK        -0.5220 
     39 N          29.8055   27.8922    1.9007 N.am      6 UNK        -0.4450 
     40 CA         29.4885   27.5915    3.2971 C.3       6 UNK         0.0367 
     41 CB         28.8096   26.2192    3.3863 C.3       6 UNK        -0.1929 
     42 C          28.6051   28.6724    3.9379 C.2       6 UNK         0.5070 
     43 O          28.8108   29.0046    5.1042 O.2       6 UNK        -0.5237 
     44 N          27.6571   29.2210    3.1642 N.am      7 UNK        -0.4739 
     45 CA         26.7613   30.3005    3.5921 C.3       7 UNK         0.0276 
     46 CB         25.5335   30.3524    2.6711 C.3       7 UNK        -0.1927 
     47 C          27.4754   31.6598    3.6400 C.2       7 UNK         0.5013 
     48 O          27.2243   32.4461    4.5533 O.2       7 UNK        -0.5193 
     49 N          28.3868   31.8887    2.6842 N.am      8 UNK        -0.4253 
     50 CA         29.3074   33.0285    2.6487 C.3       8 UNK         0.0242 
     51 CB         29.9458   33.1085    1.2525 C.3       8 UNK        -0.2000 
     52 C          30.4028   32.9658    3.7317 C.2       8 UNK         0.4948 
     53 O          31.0537   33.9822    3.9760 O.2       8 UNK        -0.5275 
     54 N          30.5861   31.7862    4.3458 N.am      9 UNK        -0.4246 
     55 CA         31.5618   31.4520    5.3855 C.3       9 UNK         0.0261 
     56 CB         31.2723   32.2278    6.6881 C.3       9 UNK        -0.1959 
     57 C          33.0125   31.6041    4.8968 C.2       9 UNK         0.5033 
     58 O          33.8471   32.1779    5.6005 O.2       9 UNK        -0.5390 
     59 N          33.3003   31.0505    3.7083 N.am      10 UNK        -0.4215 
     60 CA         34.6255   31.0576    3.0712 C.3       10 UNK         0.0240 
     61 CB         34.5118   30.4400    1.6691 C.3       10 UNK        -0.1982 
     62 C          35.7188   30.3372    3.8856 C.2       10 UNK         0.4970 
     63 O          36.9021   30.6210    3.6973 O.2       10 UNK        -0.4916 
     64 N          35.2964   29.4385    4.7817 N.am      11 UNK        -0.4279 
     65 CA         36.1275   28.7602    5.7833 C.3       11 UNK         0.1003 
     66 C          36.6129   29.6825    6.9415 C.2       11 UNK         0.5709 
     67 N          36.0885   30.8925    7.1083 N.am      11 UNK        -0.7358 
     68 O          37.4938   29.2909    7.7034 O.2       11 UNK        -0.4999 
     69 C69        35.4070   27.5041    6.3418 C.3       12 UNK        -0.0954 
     70 S70        35.0509   26.2686    5.0492 S.3       12 UNK        -0.2268 
     71 C71        33.2956   26.5964    4.6978 C.3       12 UNK         0.0203 
     72 H72        26.0860   17.7610    2.2484 H         1 UNK         0.0888 
     73 H73        27.6639   18.2449    2.8731 H         1 UNK         0.0888 
     74 H74        27.5592   17.0843    1.5478 H         1 UNK         0.0888 
     75 H75        28.2234   20.3090    2.1927 H         1 UNK         0.3017 
     76 H76        28.1199   21.1195   -0.5568 H         1 UNK         0.0873 
     77 H77        29.9651   21.9760    0.5332 H         1 UNK         0.0745 
     78 H78        28.9372   23.3718    0.4475 H         1 UNK         0.0745 
     79 H79        31.3748   21.6386    2.3550 H         1 UNK         0.0705 
     80 H80        31.1420   22.1207    4.0103 H         1 UNK         0.0705 
     81 H81        31.9008   24.2523    4.7926 H         1 UNK         0.1334 
     82 H82        33.6475   27.0369    2.0418 H         1 UNK         0.1417 
     83 H83        31.7084   23.5109    0.5709 H         1 UNK         0.1562 
     84 H84        33.2453   24.8177   -0.8602 H         1 UNK         0.0748 
     85 H85        33.9600   26.3051   -0.3091 H         1 UNK         0.0748 
     86 H86        32.3367   28.8731   -1.5267 H         1 UNK         0.0940 
     87 H87        32.9103   28.4078    0.0375 H         1 UNK         0.0940 
     88 H88        31.0592   30.1800   -0.0584 H         1 UNK         0.0703 
     89 H89        29.6552   28.1790   -1.4521 H         1 UNK         0.3081 
     90 H90        26.7439   29.9489   -1.7553 H         1 UNK         0.0719 
     91 H91        28.1139   27.2788   -2.4236 H         1 UNK         0.0809 
     92 H92        26.7955   28.0317   -3.3038 H         1 UNK         0.0809 
     93 H93        28.3709   28.7986   -3.2830 H         1 UNK         0.0809 
     94 H94        25.3059   28.6165   -0.6996 H         1 UNK         0.2990 
     95 H95        25.4783   26.4879    1.8332 H         1 UNK         0.0690 
     96 H96        23.1213   26.8014    1.1452 H         1 UNK         0.0788 
     97 H97        23.6094   27.3354   -0.4553 H         1 UNK         0.0788 
     98 H98        23.9952   28.3051    0.9602 H         1 UNK         0.0788 
     99 H99        25.2383   24.4172    1.0573 H         1 UNK         0.2993 
    100 H100       24.0465   22.7947   -0.3733 H         1 UNK         0.0949 
    101 H101       25.0301   23.0562   -3.2657 H         1 UNK         0.0767 
    102 H102       24.1989   21.6638   -2.5728 H         1 UNK         0.0767 
    103 H103       23.3606   23.1979   -2.7314 H         1 UNK         0.0767 
    104 H104       26.6568   22.3089   -1.6140 H         1 UNK         0.3013 
    105 H105       29.2768   27.3935    1.1906 H         1 UNK         0.3121 
    106 H106       30.4241   27.5419    3.8581 H         1 UNK         0.0774 
    107 H107       29.4074   25.4621    2.8828 H         1 UNK         0.0815 
    108 H108       28.6926   25.9071    4.4246 H         1 UNK         0.0815 
    109 H109       27.8201   26.2179    2.9296 H         1 UNK         0.0815 
    110 H110       27.6080   28.9441    2.1940 H         1 UNK         0.2987 
    111 H111       26.4139   30.0797    4.6042 H         1 UNK         0.0949 
    112 H112       25.8107   30.4959    1.6262 H         1 UNK         0.0806 
    113 H113       24.9535   29.4338    2.7482 H         1 UNK         0.0806 
    114 H114       24.8714   31.1737    2.9490 H         1 UNK         0.0806 
    115 H115       28.4530   31.2241    1.9147 H         1 UNK         0.3010 
    116 H116       28.7285   33.9387    2.8183 H         1 UNK         0.0829 
    117 H117       29.1886   33.1775    0.4711 H         1 UNK         0.0813 
    118 H118       30.5849   33.9881    1.1643 H         1 UNK         0.0813 
    119 H119       30.5639   32.2350    1.0451 H         1 UNK         0.0813 
    120 H120       30.0065   31.0163    4.0404 H         1 UNK         0.3038 
    121 H121       31.4226   30.3911    5.5996 H         1 UNK         0.0769 
    122 H122       31.4369   33.2990    6.5686 H         1 UNK         0.0811 
    123 H123       31.9214   31.8885    7.4963 H         1 UNK         0.0811 
    124 H124       30.2431   32.0804    7.0156 H         1 UNK         0.0811 
    125 H125       32.5553   30.5703    3.2027 H         1 UNK         0.3204 
    126 H126       34.9321   32.1002    2.9659 H         1 UNK         0.0748 
    127 H127       35.4625   30.4979    1.1372 H         1 UNK         0.0771 
    128 H128       34.2312   29.3885    1.7226 H         1 UNK         0.0771 
    129 H129       33.7681   30.9581    1.0631 H         1 UNK         0.0771 
    130 H130       34.3045   29.2854    4.8593 H         1 UNK         0.2980 
    131 H131       37.0332   28.4234    5.2753 H         1 UNK         0.0545 
    132 H132       35.3597   31.2453    6.4965 H         1 UNK         0.3459 
    133 H133       36.4246   31.4690    7.8628 H         1 UNK         0.3459 
    134 H134       34.4827   27.7805    6.8526 H         1 UNK         0.0616 
    135 H135       36.0295   27.0095    7.0898 H         1 UNK         0.0616 
    136 H136       32.7024   26.3996    5.5922 H         1 UNK         0.0634 
    137 H137       33.1510   27.6490    4.4526 H         1 UNK         0.0634 
@<TRIPOS>BOND
     1    1    2 1    
     2    1   72 1    
     3    1   73 1    
     4    1   74 1    
     5    2    3 2    
     6    2    4 am   BACKBONE|DICT|INTERRES
     7    4    5 1    
     8    4   75 1    
     9    5    6 1    
    10    5   35 1    
    11    5   76 1    
    12    6    7 1    
    13    6   77 1    
    14    6   78 1    
    15    7    8 1    
    16    8    9 1    
    17    8   79 1    
    18    8   80 1    
    19    9   10 ar   
    20    9   14 ar   
    21   10   11 ar   
    22   10   81 1    
    23   11   12 ar   
    24   11   71 1    
    25   12   13 ar   
    26   12   82 1    
    27   13   14 ar   
    28   13   15 1    
    29   14   83 1    
    30   15   16 1    
    31   15   84 1    
    32   15   85 1    
    33   16   17 1    
    34   17   18 1    
    35   17   86 1    
    36   17   87 1    
    37   18   19 1    
    38   18   37 1    
    39   18   88 1    
    40   19   20 am   BACKBONE|DICT|INTERRES
    41   19   89 1    
    42   20   21 2    
    43   20   22 1    
    44   22   23 1    
    45   22   24 1    
    46   22   90 1    
    47   23   91 1    
    48   23   92 1    
    49   23   93 1    
    50   24   25 am   BACKBONE|DICT|INTERRES
    51   24   94 1    
    52   25   26 2    
    53   25   27 1    
    54   27   28 1    
    55   27   29 1    
    56   27   95 1    
    57   28   96 1    
    58   28   97 1    
    59   28   98 1    
    60   29   30 am   BACKBONE|DICT|INTERRES
    61   29   99 1    
    62   30   31 2    
    63   30   32 1    
    64   32   33 1    
    65   32   34 1    
    66   32  100 1    
    67   33  101 1    
    68   33  102 1    
    69   33  103 1    
    70   34   35 am   BACKBONE|DICT|INTERRES
    71   34  104 1    
    72   35   36 2    
    73   37   38 2    
    74   37   39 am   BACKBONE|DICT|INTERRES
    75   39   40 1    
    76   39  105 1    
    77   40   41 1    
    78   40   42 1    
    79   40  106 1    
    80   41  107 1    
    81   41  108 1    
    82   41  109 1    
    83   42   43 2    
    84   42   44 am   BACKBONE|DICT|INTERRES
    85   44   45 1    
    86   44  110 1    
    87   45   46 1    
    88   45   47 1    
    89   45  111 1    
    90   46  112 1    
    91   46  113 1    
    92   46  114 1    
    93   47   48 2    
    94   47   49 am   BACKBONE|DICT|INTERRES
    95   49   50 1    
    96   49  115 1    
    97   50   51 1    
    98   50   52 1    
    99   50  116 1    
   100   51  117 1    
   101   51  118 1    
   102   51  119 1    
   103   52   53 2    
   104   52   54 am   BACKBONE|DICT|INTERRES
   105   54   55 1    
   106   54  120 1    
   107   55   56 1    
   108   55   57 1    
   109   55  121 1    
   110   56  122 1    
   111   56  123 1    
   112   56  124 1    
   113   57   58 2    
   114   57   59 am   BACKBONE|DICT|INTERRES
   115   59   60 1    
   116   59  125 1    
   117   60   61 1    
   118   60   62 1    
   119   60  126 1    
   120   61  127 1    
   121   61  128 1    
   122   61  129 1    
   123   62   63 2    
   124   62   64 am   BACKBONE|DICT|INTERRES
   125   64   65 1    
   126   64  130 1    
   127   65   66 1    
   128   65   69 1    
   129   65  131 1    
   130   66   67 am   BACKBONE|DICT|INTERRES
   131   66   68 2    
   132   67  132 1    
   133   67  133 1    
   134   69   70 1    
   135   69  134 1    
   136   69  135 1    
   137   70   71 1    
   138   71  136 1    
   139   71  137 1    
@<TRIPOS>SUBSTRUCTURE
     1 UNK         1 GROUP             0       ****    0 ROOT    
