@<TRIPOS>MOLECULE
3R136
137   139    1
SMALL
USER_CHARGES


@<TRIPOS>ATOM
      1 CA         32.4605   27.0662   -3.5017 C.3       0 UNK        -0.1979 
      2 C          31.0344   27.1759   -2.9840 C.2       0 UNK         0.4864 
      3 O          30.2867   28.0501   -3.4265 O.2       0 UNK        -0.5359 
      4 N          30.6515   26.3033   -2.0426 N.am      1 UNK        -0.4318 
      5 CA         29.3191   26.2513   -1.4335 C.3       1 UNK         0.0824 
      6 C6         29.3347   25.5312   -0.0597 C.3       12 UNK        -0.0944 
      7 S7         30.3432   26.4346    1.1644 S.3       12 UNK        -0.2672 
      8 C8         31.5780   25.1947    1.6707 C.3       12 UNK         0.0333 
      9 C9         31.3835   24.8029    3.1274 C.ar      12 UNK        -0.0807 
     10 C10        32.1253   25.4422    4.1248 C.ar      12 UNK        -0.0894 
     11 C11        31.9541   25.0951    5.4671 C.ar      12 UNK        -0.0804 
     12 C12        31.0103   24.1241    5.8121 C.ar      12 UNK        -0.0824 
     13 C13        30.2602   23.4736    4.8267 C.ar      12 UNK        -0.0762 
     14 C14        30.4715   23.8022    3.4812 C.ar      12 UNK        -0.0782 
     15 C15        29.2615   22.3940    5.2441 C.3       12 UNK         0.0230 
     16 S16        27.6574   22.4507    4.3717 S.3       12 UNK        -0.2608 
     17 C17        27.0867   24.1595    4.6769 C.3       12 UNK        -0.0989 
     18 CA         27.0857   24.9742    3.3573 C.3       5 UNK         0.0716 
     19 N          26.1823   24.4284    2.3396 N.am      5 UNK        -0.4135 
     20 C          24.8439   24.4765    2.3253 C.2       4 UNK         0.5031 
     21 O          24.1484   25.0033    3.1962 O.2       4 UNK        -0.5229 
     22 CA         24.1737   23.8231    1.1020 C.3       4 UNK         0.0329 
     23 CB         22.9228   23.0238    1.5091 C.3       4 UNK        -0.2001 
     24 N          23.8094   24.7743    0.0456 N.am      4 UNK        -0.4303 
     25 C          24.6147   25.6727   -0.5382 C.2       3 UNK         0.5044 
     26 O          25.7731   25.9124   -0.1851 O.2       3 UNK        -0.5152 
     27 CA         24.0274   26.4317   -1.7374 C.3       3 UNK         0.0319 
     28 CB         23.4179   27.7732   -1.3007 C.3       3 UNK        -0.2001 
     29 N          25.1005   26.6712   -2.7006 N.am      3 UNK        -0.4354 
     30 C          25.4310   25.8295   -3.6894 C.2       2 UNK         0.4964 
     31 O          24.7300   24.8860   -4.0575 O.2       2 UNK        -0.5047 
     32 CA         26.8018   26.0571   -4.3504 C.3       2 UNK         0.0288 
     33 CB         26.7123   27.1364   -5.4415 C.3       2 UNK        -0.2113 
     34 N          27.8376   26.4245   -3.3791 N.am      2 UNK        -0.4145 
     35 C          28.3074   25.6205   -2.4133 C.2       1 UNK         0.5006 
     36 O          27.9947   24.4333   -2.2985 O.2       1 UNK        -0.5103 
     37 C          26.8943   26.4913    3.5518 C.2       5 UNK         0.5055 
     38 O          26.6965   26.9633    4.6727 O.2       5 UNK        -0.5220 
     39 N          26.9833   27.2250    2.4329 N.am      6 UNK        -0.4450 
     40 CA         26.9361   28.6883    2.3469 C.3       6 UNK         0.0367 
     41 CB         26.9345   29.0846    0.8612 C.3       6 UNK        -0.1929 
     42 C          28.0787   29.4268    3.0755 C.2       6 UNK         0.5070 
     43 O          27.9714   30.6401    3.2554 O.2       6 UNK        -0.5237 
     44 N          29.1445   28.7030    3.4531 N.am      7 UNK        -0.4739 
     45 CA         30.3813   29.1864    4.0784 C.3       7 UNK         0.0276 
     46 CB         30.1065   29.8244    5.4573 C.3       7 UNK        -0.1927 
     47 C          31.1700   30.1059    3.1307 C.2       7 UNK         0.5013 
     48 O          31.5428   31.2200    3.5062 O.2       7 UNK        -0.5193 
     49 N          31.3962   29.6196    1.9017 N.am      8 UNK        -0.4253 
     50 CA         32.1523   30.2984    0.8480 C.3       8 UNK         0.0242 
     51 CB         32.1430   29.4307   -0.4202 C.3       8 UNK        -0.2000 
     52 C          33.5891   30.6119    1.2996 C.2       8 UNK         0.4948 
     53 O          34.3325   29.6877    1.6338 O.2       8 UNK        -0.5275 
     54 N          33.9187   31.9113    1.3392 N.am      9 UNK        -0.4246 
     55 CA         35.1602   32.5028    1.8603 C.3       9 UNK         0.0261 
     56 CB         36.3862   32.0423    1.0414 C.3       9 UNK        -0.1959 
     57 C          35.3595   32.3240    3.3836 C.2       9 UNK         0.5033 
     58 O          36.4868   32.4827    3.8565 O.2       9 UNK        -0.5390 
     59 N          34.2660   32.0469    4.1147 N.am      10 UNK        -0.4215 
     60 CA         34.1486   31.7816    5.5547 C.3       10 UNK         0.0240 
     61 CB         34.7285   32.9331    6.4019 C.3       10 UNK        -0.1982 
     62 C          34.7315   30.4210    5.9781 C.2       10 UNK         0.4970 
     63 O          35.6807   29.9193    5.3732 O.2       10 UNK        -0.4916 
     64 N          34.1507   29.8551    7.0422 N.am      11 UNK        -0.4279 
     65 CA         34.5943   28.5946    7.6618 C.3       11 UNK         0.1003 
     66 C          35.7704   28.7606    8.6689 C.2       11 UNK         0.5709 
     67 N          36.2093   29.9713    8.9941 N.am      11 UNK        -0.7358 
     68 O          36.3058   27.7678    9.1564 O.2       11 UNK        -0.4999 
     69 C69        33.4090   27.8207    8.2978 C.3       12 UNK        -0.0954 
     70 S70        32.1476   27.3428    7.0708 S.3       12 UNK        -0.2268 
     71 C71        32.8161   25.7400    6.5403 C.3       12 UNK         0.0203 
     72 H72        32.4561   26.8662   -4.5728 H         1 UNK         0.0888 
     73 H73        32.9930   28.0014   -3.3310 H         1 UNK         0.0888 
     74 H74        33.0131   26.2668   -3.0084 H         1 UNK         0.0888 
     75 H75        31.3013   25.5992   -1.7247 H         1 UNK         0.3017 
     76 H76        28.9872   27.2762   -1.2527 H         1 UNK         0.0873 
     77 H77        29.6838   24.5034   -0.1671 H         1 UNK         0.0745 
     78 H78        28.3240   25.4598    0.3415 H         1 UNK         0.0745 
     79 H79        32.5724   25.6201    1.5264 H         1 UNK         0.0705 
     80 H80        31.5404   24.3084    1.0369 H         1 UNK         0.0705 
     81 H81        32.8451   26.2042    3.8573 H         1 UNK         0.1334 
     82 H82        30.8745   23.8618    6.8527 H         1 UNK         0.1417 
     83 H83        29.9117   23.2924    2.7090 H         1 UNK         0.1562 
     84 H84        29.0623   22.4525    6.3154 H         1 UNK         0.0748 
     85 H85        29.7156   21.4175    5.0714 H         1 UNK         0.0748 
     86 H86        27.7327   24.6258    5.4234 H         1 UNK         0.0940 
     87 H87        26.0875   24.1311    5.1147 H         1 UNK         0.0940 
     88 H88        28.0819   24.8891    2.9261 H         1 UNK         0.0703 
     89 H89        26.6372   24.0007    1.5462 H         1 UNK         0.3081 
     90 H90        24.8828   23.1167    0.6651 H         1 UNK         0.0719 
     91 H91        22.1318   23.6741    1.8850 H         1 UNK         0.0809 
     92 H92        22.5210   22.4567    0.6692 H         1 UNK         0.0809 
     93 H93        23.1573   22.3077    2.2982 H         1 UNK         0.0809 
     94 H94        22.8673   24.6907   -0.3076 H         1 UNK         0.2990 
     95 H95        23.2416   25.8273   -2.1960 H         1 UNK         0.0690 
     96 H96        22.9792   28.2997   -2.1485 H         1 UNK         0.0788 
     97 H97        24.1575   28.4322   -0.8480 H         1 UNK         0.0788 
     98 H98        22.6240   27.6219   -0.5681 H         1 UNK         0.0788 
     99 H99        25.7722   27.3787   -2.4421 H         1 UNK         0.2993 
    100 H100       27.1014   25.1177   -4.8205 H         1 UNK         0.0949 
    101 H101       27.6622   27.2500   -5.9646 H         1 UNK         0.0767 
    102 H102       25.9613   26.8742   -6.1882 H         1 UNK         0.0767 
    103 H103       26.4380   28.1084   -5.0295 H         1 UNK         0.0767 
    104 H104       28.2494   27.3471   -3.4643 H         1 UNK         0.3013 
    105 H105       27.0470   26.7338    1.5500 H         1 UNK         0.3121 
    106 H106       25.9967   29.0148    2.7973 H         1 UNK         0.0774 
    107 H107       26.8147   30.1624    0.7428 H         1 UNK         0.0815 
    108 H108       27.8673   28.8048    0.3705 H         1 UNK         0.0815 
    109 H109       26.1170   28.6084    0.3238 H         1 UNK         0.0815 
    110 H110       29.1312   27.7188    3.2251 H         1 UNK         0.2987 
    111 H111       31.0074   28.3083    4.2455 H         1 UNK         0.0949 
    112 H112       29.5326   30.7476    5.3770 H         1 UNK         0.0806 
    113 H113       29.5578   29.1415    6.1059 H         1 UNK         0.0806 
    114 H114       31.0409   30.0696    5.9627 H         1 UNK         0.0806 
    115 H115       31.0603   28.6905    1.6856 H         1 UNK         0.3010 
    116 H116       31.6340   31.2330    0.6236 H         1 UNK         0.0829 
    117 H117       31.1256   29.2615   -0.7732 H         1 UNK         0.0813 
    118 H118       32.6911   29.9139   -1.2299 H         1 UNK         0.0813 
    119 H119       32.6044   28.4572   -0.2477 H         1 UNK         0.0813 
    120 H120       33.2172   32.5815    1.0533 H         1 UNK         0.3038 
    121 H121       35.0583   33.5782    1.7072 H         1 UNK         0.0769 
    122 H122       37.2749   32.6137    1.3120 H         1 UNK         0.0811 
    123 H123       36.2268   32.1829   -0.0276 H         1 UNK         0.0811 
    124 H124       36.6158   30.9902    1.2123 H         1 UNK         0.0811 
    125 H125       33.3936   31.9071    3.6115 H         1 UNK         0.3204 
    126 H126       33.0747   31.7449    5.7449 H         1 UNK         0.0748 
    127 H127       34.4749   32.8095    7.4552 H         1 UNK         0.0771 
    128 H128       35.8159   32.9814    6.3373 H         1 UNK         0.0771 
    129 H129       34.3304   33.8975    6.0862 H         1 UNK         0.0771 
    130 H130       33.3836   30.3245    7.5001 H         1 UNK         0.2980 
    131 H131       34.9962   27.9581    6.8714 H         1 UNK         0.0545 
    132 H132       35.7879   30.7943    8.5963 H         1 UNK         0.3459 
    133 H133       36.9754   30.0590    9.6431 H         1 UNK         0.3459 
    134 H134       33.7550   26.9175    8.8042 H         1 UNK         0.0616 
    135 H135       32.9271   28.4290    9.0649 H         1 UNK         0.0616 
    136 H136       33.8297   25.8784    6.1612 H         1 UNK         0.0634 
    137 H137       32.8984   25.0795    7.4049 H         1 UNK         0.0634 
@<TRIPOS>BOND
     1    1    2 1    
     2    1   72 1    
     3    1   73 1    
     4    1   74 1    
     5    2    3 2    
     6    2    4 am   BACKBONE|DICT|INTERRES
     7    4    5 1    
     8    4   75 1    
     9    5    6 1    
    10    5   35 1    
    11    5   76 1    
    12    6    7 1    
    13    6   77 1    
    14    6   78 1    
    15    7    8 1    
    16    8    9 1    
    17    8   79 1    
    18    8   80 1    
    19    9   10 ar   
    20    9   14 ar   
    21   10   11 ar   
    22   10   81 1    
    23   11   12 ar   
    24   11   71 1    
    25   12   13 ar   
    26   12   82 1    
    27   13   14 ar   
    28   13   15 1    
    29   14   83 1    
    30   15   16 1    
    31   15   84 1    
    32   15   85 1    
    33   16   17 1    
    34   17   18 1    
    35   17   86 1    
    36   17   87 1    
    37   18   19 1    
    38   18   37 1    
    39   18   88 1    
    40   19   20 am   BACKBONE|DICT|INTERRES
    41   19   89 1    
    42   20   21 2    
    43   20   22 1    
    44   22   23 1    
    45   22   24 1    
    46   22   90 1    
    47   23   91 1    
    48   23   92 1    
    49   23   93 1    
    50   24   25 am   BACKBONE|DICT|INTERRES
    51   24   94 1    
    52   25   26 2    
    53   25   27 1    
    54   27   28 1    
    55   27   29 1    
    56   27   95 1    
    57   28   96 1    
    58   28   97 1    
    59   28   98 1    
    60   29   30 am   BACKBONE|DICT|INTERRES
    61   29   99 1    
    62   30   31 2    
    63   30   32 1    
    64   32   33 1    
    65   32   34 1    
    66   32  100 1    
    67   33  101 1    
    68   33  102 1    
    69   33  103 1    
    70   34   35 am   BACKBONE|DICT|INTERRES
    71   34  104 1    
    72   35   36 2    
    73   37   38 2    
    74   37   39 am   BACKBONE|DICT|INTERRES
    75   39   40 1    
    76   39  105 1    
    77   40   41 1    
    78   40   42 1    
    79   40  106 1    
    80   41  107 1    
    81   41  108 1    
    82   41  109 1    
    83   42   43 2    
    84   42   44 am   BACKBONE|DICT|INTERRES
    85   44   45 1    
    86   44  110 1    
    87   45   46 1    
    88   45   47 1    
    89   45  111 1    
    90   46  112 1    
    91   46  113 1    
    92   46  114 1    
    93   47   48 2    
    94   47   49 am   BACKBONE|DICT|INTERRES
    95   49   50 1    
    96   49  115 1    
    97   50   51 1    
    98   50   52 1    
    99   50  116 1    
   100   51  117 1    
   101   51  118 1    
   102   51  119 1    
   103   52   53 2    
   104   52   54 am   BACKBONE|DICT|INTERRES
   105   54   55 1    
   106   54  120 1    
   107   55   56 1    
   108   55   57 1    
   109   55  121 1    
   110   56  122 1    
   111   56  123 1    
   112   56  124 1    
   113   57   58 2    
   114   57   59 am   BACKBONE|DICT|INTERRES
   115   59   60 1    
   116   59  125 1    
   117   60   61 1    
   118   60   62 1    
   119   60  126 1    
   120   61  127 1    
   121   61  128 1    
   122   61  129 1    
   123   62   63 2    
   124   62   64 am   BACKBONE|DICT|INTERRES
   125   64   65 1    
   126   64  130 1    
   127   65   66 1    
   128   65   69 1    
   129   65  131 1    
   130   66   67 am   BACKBONE|DICT|INTERRES
   131   66   68 2    
   132   67  132 1    
   133   67  133 1    
   134   69   70 1    
   135   69  134 1    
   136   69  135 1    
   137   70   71 1    
   138   71  136 1    
   139   71  137 1    
@<TRIPOS>SUBSTRUCTURE
     1 UNK         1 GROUP             0       ****    0 ROOT    
