@<TRIPOS>MOLECULE
3R136
137   139    1
SMALL
USER_CHARGES


@<TRIPOS>ATOM
      1 CA         26.8149   25.5368    5.2311 C.3       0 UNK        -0.1979 
      2 C          26.9395   24.9983    3.8150 C.2       0 UNK         0.4864 
      3 O          26.8415   25.7698    2.8622 O.2       0 UNK        -0.5359 
      4 N          27.1338   23.6781    3.6723 N.am      1 UNK        -0.4318 
      5 CA         27.4239   22.9564    2.4190 C.3       1 UNK         0.0824 
      6 C6         28.8502   23.2475    1.8741 C.3       12 UNK        -0.0944 
      7 S7         30.1622   22.9487    3.1096 S.3       12 UNK        -0.2672 
      8 C8         30.8373   24.6271    3.3314 C.3       12 UNK         0.0333 
      9 C9         32.0299   24.9041    2.4224 C.ar      12 UNK        -0.0807 
     10 C10        33.2603   25.2656    2.9767 C.ar      12 UNK        -0.0894 
     11 C11        34.3513   25.5800    2.1609 C.ar      12 UNK        -0.0804 
     12 C12        34.2172   25.4782    0.7715 C.ar      12 UNK        -0.0824 
     13 C13        32.9870   25.1391    0.2005 C.ar      12 UNK        -0.0762 
     14 C14        31.9016   24.8501    1.0319 C.ar      12 UNK        -0.0782 
     15 C15        32.8038   25.1348   -1.3128 C.3       12 UNK         0.0230 
     16 S16        33.2474   26.7240   -2.0992 S.3       12 UNK        -0.2608 
     17 C17        32.3590   27.9623   -1.0906 C.3       12 UNK        -0.0989 
     18 CA         31.1194   28.5632   -1.8041 C.3       5 UNK         0.0716 
     19 N          30.0705   27.5927   -2.1513 N.am      5 UNK        -0.4135 
     20 C          29.3644   26.8264   -1.3100 C.2       4 UNK         0.5031 
     21 O          29.5795   26.7463   -0.0991 O.2       4 UNK        -0.5229 
     22 CA         28.2092   26.0157   -1.9179 C.3       4 UNK         0.0329 
     23 CB         28.6148   24.5434   -2.0858 C.3       4 UNK        -0.2001 
     24 N          27.0260   26.1128   -1.0586 N.am      4 UNK        -0.4303 
     25 C          26.3147   27.2404   -0.8978 C.2       3 UNK         0.5044 
     26 O          26.4874   28.2469   -1.5885 O.2       3 UNK        -0.5152 
     27 CA         25.2761   27.2875    0.2401 C.3       3 UNK         0.0319 
     28 CB         24.0539   28.1713   -0.0905 C.3       3 UNK        -0.2001 
     29 N          24.8777   25.9717    0.7490 N.am      3 UNK        -0.4354 
     30 C          24.1317   25.0381    0.1368 C.2       2 UNK         0.4964 
     31 O          23.6234   25.1862   -0.9756 O.2       2 UNK        -0.5047 
     32 CA         23.9299   23.7093    0.9027 C.3       2 UNK         0.0288 
     33 CB         23.5284   22.5392   -0.0216 C.3       2 UNK        -0.2113 
     34 N          25.0812   23.3386    1.7404 N.am      2 UNK        -0.4145 
     35 C          26.3464   23.1595    1.3257 C.2       1 UNK         0.5006 
     36 O          26.6786   23.2020    0.1401 O.2       1 UNK        -0.5103 
     37 C          30.5449   29.7575   -1.0127 C.2       5 UNK         0.5055 
     38 O          30.4944   30.8676   -1.5448 O.2       5 UNK        -0.5220 
     39 N          30.1150   29.5079    0.2283 N.am      6 UNK        -0.4450 
     40 CA         29.4814   30.4607    1.1284 C.3       6 UNK         0.0367 
     41 CB         30.5367   31.3795    1.7741 C.3       6 UNK        -0.1929 
     42 C          28.7301   29.6656    2.1981 C.2       6 UNK         0.5070 
     43 O          29.3128   28.7599    2.7973 O.2       6 UNK        -0.5237 
     44 N          27.4785   30.0568    2.4735 N.am      7 UNK        -0.4739 
     45 CA         26.6143   29.4454    3.4949 C.3       7 UNK         0.0276 
     46 CB         25.1905   30.0072    3.3540 C.3       7 UNK        -0.1927 
     47 C          27.1242   29.6147    4.9397 C.2       7 UNK         0.5013 
     48 O          26.6916   28.8779    5.8253 O.2       7 UNK        -0.5193 
     49 N          28.0473   30.5632    5.1475 N.am      8 UNK        -0.4253 
     50 CA         28.7828   30.7705    6.3947 C.3       8 UNK         0.0242 
     51 CB         29.4104   32.1751    6.3691 C.3       8 UNK        -0.2000 
     52 C          29.8674   29.7067    6.6579 C.2       8 UNK         0.4948 
     53 O          30.4178   29.6943    7.7586 O.2       8 UNK        -0.5275 
     54 N          30.2036   28.8761    5.6557 N.am      9 UNK        -0.4246 
     55 CA         31.2014   27.7925    5.6529 C.3       9 UNK         0.0261 
     56 CB         30.8549   26.7044    6.6883 C.3       9 UNK        -0.1959 
     57 C          32.6727   28.2351    5.7837 C.2       9 UNK         0.5033 
     58 O          33.5577   27.4852    5.3729 O.2       9 UNK        -0.5390 
     59 N          32.9347   29.4359    6.3108 N.am      10 UNK        -0.4215 
     60 CA         34.2481   30.0794    6.3563 C.3       10 UNK         0.0240 
     61 CB         34.2204   31.1872    7.4258 C.3       10 UNK        -0.1982 
     62 C          34.6378   30.6104    4.9634 C.2       10 UNK         0.4970 
     63 O          34.5875   31.8191    4.7293 O.2       10 UNK        -0.4916 
     64 N          34.9702   29.6881    4.0518 N.am      11 UNK        -0.4279 
     65 CA         35.2807   29.9681    2.6419 C.3       11 UNK         0.1003 
     66 C          36.6102   30.7362    2.3744 C.2       11 UNK         0.5709 
     67 N          37.5040   30.8798    3.3460 N.am      11 UNK        -0.7358 
     68 O          36.8251   31.2226    1.2668 O.2       11 UNK        -0.4999 
     69 C69        35.1243   28.6978    1.7630 C.3       12 UNK        -0.0954 
     70 S70        36.4566   27.4524    1.9420 S.3       12 UNK        -0.2268 
     71 C71        35.6517   26.0559    2.8040 C.3       12 UNK         0.0203 
     72 H72        27.6001   26.2684    5.4178 H         1 UNK         0.0888 
     73 H73        25.8537   26.0328    5.3623 H         1 UNK         0.0888 
     74 H74        26.8990   24.7493    5.9791 H         1 UNK         0.0888 
     75 H75        27.1793   23.1057    4.5041 H         1 UNK         0.3017 
     76 H76        27.3819   21.8952    2.6686 H         1 UNK         0.0873 
     77 H77        29.0697   22.6111    1.0149 H         1 UNK         0.0745 
     78 H78        28.9024   24.2755    1.5107 H         1 UNK         0.0745 
     79 H79        31.1296   24.7279    4.3771 H         1 UNK         0.0705 
     80 H80        30.0651   25.3797    3.1626 H         1 UNK         0.0705 
     81 H81        33.3625   25.3284    4.0510 H         1 UNK         0.1334 
     82 H82        35.0537   25.7167    0.1293 H         1 UNK         0.1417 
     83 H83        30.9469   24.6027    0.5929 H         1 UNK         0.1562 
     84 H84        31.7726   24.8969   -1.5766 H         1 UNK         0.0748 
     85 H85        33.4199   24.3442   -1.7426 H         1 UNK         0.0748 
     86 H86        33.0776   28.7541   -0.8711 H         1 UNK         0.0940 
     87 H87        32.0874   27.5481   -0.1202 H         1 UNK         0.0940 
     88 H88        31.4643   28.9680   -2.7572 H         1 UNK         0.0703 
     89 H89        29.8064   27.5906   -3.1262 H         1 UNK         0.3081 
     90 H90        27.9549   26.4203   -2.8999 H         1 UNK         0.0719 
     91 H91        29.4483   24.4451   -2.7822 H         1 UNK         0.0809 
     92 H92        28.9275   24.1012   -1.1393 H         1 UNK         0.0809 
     93 H93        27.7911   23.9460   -2.4769 H         1 UNK         0.0809 
     94 H94        26.8417   25.3236   -0.4513 H         1 UNK         0.2990 
     95 H95        25.7966   27.7638    1.0712 H         1 UNK         0.0690 
     96 H96        23.5271   27.8217   -0.9786 H         1 UNK         0.0788 
     97 H97        24.3577   29.2012   -0.2816 H         1 UNK         0.0788 
     98 H98        23.3441   28.1934    0.7363 H         1 UNK         0.0788 
     99 H99        25.3231   25.7269    1.6301 H         1 UNK         0.2993 
    100 H100       23.0986   23.8866    1.5868 H         1 UNK         0.0949 
    101 H101       24.2858   22.3452   -0.7818 H         1 UNK         0.0767 
    102 H102       23.3781   21.6200    0.5446 H         1 UNK         0.0767 
    103 H103       22.5940   22.7534   -0.5419 H         1 UNK         0.0767 
    104 H104       24.9077   23.3007    2.7354 H         1 UNK         0.3013 
    105 H105       30.0997   28.5393    0.5464 H         1 UNK         0.3121 
    106 H106       28.7701   31.0640    0.5603 H         1 UNK         0.0774 
    107 H107       30.0733   32.0815    2.4681 H         1 UNK         0.0815 
    108 H108       31.2797   30.8083    2.3328 H         1 UNK         0.0815 
    109 H109       31.0646   31.9695    1.0249 H         1 UNK         0.0815 
    110 H110       27.0805   30.8237    1.9492 H         1 UNK         0.2987 
    111 H111       26.5813   28.3717    3.3010 H         1 UNK         0.0949 
    112 H112       24.7846   29.8219    2.3598 H         1 UNK         0.0806 
    113 H113       24.5137   29.5372    4.0692 H         1 UNK         0.0806 
    114 H114       25.1607   31.0823    3.5352 H         1 UNK         0.0806 
    115 H115       28.3187   31.1312    4.3588 H         1 UNK         0.3010 
    116 H116       28.0746   30.7237    7.2247 H         1 UNK         0.0829 
    117 H117       28.6511   32.9472    6.2436 H         1 UNK         0.0813 
    118 H118       29.9320   32.3885    7.3033 H         1 UNK         0.0813 
    119 H119       30.1352   32.2808    5.5606 H         1 UNK         0.0813 
    120 H120       29.7258   28.9904    4.7659 H         1 UNK         0.3038 
    121 H121       31.1202   27.3395    4.6636 H         1 UNK         0.0769 
    122 H122       31.5449   25.8629    6.6142 H         1 UNK         0.0811 
    123 H123       30.9154   27.0789    7.7103 H         1 UNK         0.0811 
    124 H124       29.8499   26.3137    6.5321 H         1 UNK         0.0811 
    125 H125       32.1521   29.9493    6.6986 H         1 UNK         0.3204 
    126 H126       34.9957   29.3418    6.6560 H         1 UNK         0.0748 
    127 H127       35.1847   31.6932    7.4891 H         1 UNK         0.0771 
    128 H128       33.4668   31.9449    7.2069 H         1 UNK         0.0771 
    129 H129       34.0048   30.7780    8.4130 H         1 UNK         0.0771 
    130 H130       34.9177   28.7119    4.3187 H         1 UNK         0.2980 
    131 H131       34.5007   30.6544    2.3062 H         1 UNK         0.0545 
    132 H132       38.3571   31.3835    3.1625 H         1 UNK         0.3459 
    133 H133       37.3364   30.4815    4.2552 H         1 UNK         0.3459 
    134 H134       34.1539   28.2400    1.9568 H         1 UNK         0.0616 
    135 H135       35.0969   28.9853    0.7109 H         1 UNK         0.0616 
    136 H136       35.4792   26.3548    3.8385 H         1 UNK         0.0634 
    137 H137       36.3501   25.2192    2.8383 H         1 UNK         0.0634 
@<TRIPOS>BOND
     1    1    2 1    
     2    1   72 1    
     3    1   73 1    
     4    1   74 1    
     5    2    3 2    
     6    2    4 am   BACKBONE|DICT|INTERRES
     7    4    5 1    
     8    4   75 1    
     9    5    6 1    
    10    5   35 1    
    11    5   76 1    
    12    6    7 1    
    13    6   77 1    
    14    6   78 1    
    15    7    8 1    
    16    8    9 1    
    17    8   79 1    
    18    8   80 1    
    19    9   10 ar   
    20    9   14 ar   
    21   10   11 ar   
    22   10   81 1    
    23   11   12 ar   
    24   11   71 1    
    25   12   13 ar   
    26   12   82 1    
    27   13   14 ar   
    28   13   15 1    
    29   14   83 1    
    30   15   16 1    
    31   15   84 1    
    32   15   85 1    
    33   16   17 1    
    34   17   18 1    
    35   17   86 1    
    36   17   87 1    
    37   18   19 1    
    38   18   37 1    
    39   18   88 1    
    40   19   20 am   BACKBONE|DICT|INTERRES
    41   19   89 1    
    42   20   21 2    
    43   20   22 1    
    44   22   23 1    
    45   22   24 1    
    46   22   90 1    
    47   23   91 1    
    48   23   92 1    
    49   23   93 1    
    50   24   25 am   BACKBONE|DICT|INTERRES
    51   24   94 1    
    52   25   26 2    
    53   25   27 1    
    54   27   28 1    
    55   27   29 1    
    56   27   95 1    
    57   28   96 1    
    58   28   97 1    
    59   28   98 1    
    60   29   30 am   BACKBONE|DICT|INTERRES
    61   29   99 1    
    62   30   31 2    
    63   30   32 1    
    64   32   33 1    
    65   32   34 1    
    66   32  100 1    
    67   33  101 1    
    68   33  102 1    
    69   33  103 1    
    70   34   35 am   BACKBONE|DICT|INTERRES
    71   34  104 1    
    72   35   36 2    
    73   37   38 2    
    74   37   39 am   BACKBONE|DICT|INTERRES
    75   39   40 1    
    76   39  105 1    
    77   40   41 1    
    78   40   42 1    
    79   40  106 1    
    80   41  107 1    
    81   41  108 1    
    82   41  109 1    
    83   42   43 2    
    84   42   44 am   BACKBONE|DICT|INTERRES
    85   44   45 1    
    86   44  110 1    
    87   45   46 1    
    88   45   47 1    
    89   45  111 1    
    90   46  112 1    
    91   46  113 1    
    92   46  114 1    
    93   47   48 2    
    94   47   49 am   BACKBONE|DICT|INTERRES
    95   49   50 1    
    96   49  115 1    
    97   50   51 1    
    98   50   52 1    
    99   50  116 1    
   100   51  117 1    
   101   51  118 1    
   102   51  119 1    
   103   52   53 2    
   104   52   54 am   BACKBONE|DICT|INTERRES
   105   54   55 1    
   106   54  120 1    
   107   55   56 1    
   108   55   57 1    
   109   55  121 1    
   110   56  122 1    
   111   56  123 1    
   112   56  124 1    
   113   57   58 2    
   114   57   59 am   BACKBONE|DICT|INTERRES
   115   59   60 1    
   116   59  125 1    
   117   60   61 1    
   118   60   62 1    
   119   60  126 1    
   120   61  127 1    
   121   61  128 1    
   122   61  129 1    
   123   62   63 2    
   124   62   64 am   BACKBONE|DICT|INTERRES
   125   64   65 1    
   126   64  130 1    
   127   65   66 1    
   128   65   69 1    
   129   65  131 1    
   130   66   67 am   BACKBONE|DICT|INTERRES
   131   66   68 2    
   132   67  132 1    
   133   67  133 1    
   134   69   70 1    
   135   69  134 1    
   136   69  135 1    
   137   70   71 1    
   138   71  136 1    
   139   71  137 1    
@<TRIPOS>SUBSTRUCTURE
     1 UNK         1 GROUP             0       ****    0 ROOT    
