@<TRIPOS>MOLECULE
3R136
137   139    1
SMALL
USER_CHARGES


@<TRIPOS>ATOM
      1 CA         26.4351   20.8622   -0.4622 C.3       0 UNK        -0.1979 
      2 C          27.0426   21.7125    0.6441 C.2       0 UNK         0.4864 
      3 O          26.4738   21.7898    1.7333 O.2       0 UNK        -0.5359 
      4 N          28.1920   22.3445    0.3671 N.am      1 UNK        -0.4318 
      5 CA         28.9030   23.2783    1.2459 C.3       1 UNK         0.0824 
      6 C6         29.4471   22.6119    2.5394 C.3       12 UNK        -0.0944 
      7 S7         30.7570   23.5947    3.3415 S.3       12 UNK        -0.2672 
      8 C8         32.2006   23.2455    2.2908 C.3       12 UNK         0.0333 
      9 C9         32.8145   24.5330    1.7592 C.ar      12 UNK        -0.0807 
     10 C10        33.7377   25.2379    2.5380 C.ar      12 UNK        -0.0894 
     11 C11        34.3423   26.3992    2.0478 C.ar      12 UNK        -0.0804 
     12 C12        34.0069   26.8605    0.7708 C.ar      12 UNK        -0.0824 
     13 C13        33.0726   26.1762   -0.0118 C.ar      12 UNK        -0.0762 
     14 C14        32.4833   25.0090    0.4853 C.ar      12 UNK        -0.0782 
     15 C15        32.7286   26.6903   -1.4035 C.3       12 UNK         0.0230 
     16 S16        31.5440   28.0724   -1.3411 S.3       12 UNK        -0.2608 
     17 C17        29.9795   27.2126   -0.9610 C.3       12 UNK        -0.0989 
     18 CA         28.7920   27.7178   -1.8216 C.3       5 UNK         0.0716 
     19 N          27.7019   26.7487   -1.8064 N.am      5 UNK        -0.4135 
     20 C          26.6822   26.6918   -2.6705 C.2       4 UNK         0.5031 
     21 O          26.6442   27.3022   -3.7396 O.2       4 UNK        -0.5229 
     22 CA         25.4722   25.8585   -2.2159 C.3       4 UNK         0.0329 
     23 CB         25.7679   24.3492   -2.2587 C.3       4 UNK        -0.2001 
     24 N          25.0853   26.2641   -0.8607 N.am      4 UNK        -0.4303 
     25 C          24.3349   27.3434   -0.5936 C.2       3 UNK         0.5044 
     26 O          23.7152   27.9639   -1.4590 O.2       3 UNK        -0.5152 
     27 CA         24.2836   27.8693    0.8545 C.3       3 UNK         0.0319 
     28 CB         22.9276   27.5705    1.5265 C.3       3 UNK        -0.2001 
     29 N          25.4286   27.4791    1.6906 N.am      3 UNK        -0.4354 
     30 C          25.6796   26.2985    2.2716 C.2       2 UNK         0.4964 
     31 O          24.9275   25.3241    2.2256 O.2       2 UNK        -0.5047 
     32 CA         27.0247   26.1858    3.0145 C.3       2 UNK         0.0288 
     33 CB         26.8039   26.2445    4.5349 C.3       2 UNK        -0.2113 
     34 N          27.7665   24.9652    2.6784 N.am      2 UNK        -0.4145 
     35 C          28.0797   24.5704    1.4358 C.2       1 UNK         0.5006 
     36 O          27.7600   25.2007    0.4275 O.2       1 UNK        -0.5103 
     37 C          28.2683   29.0715   -1.2993 C.2       5 UNK         0.5055 
     38 O          27.3587   29.1031   -0.4643 O.2       5 UNK        -0.5220 
     39 N          28.8835   30.1649   -1.7673 N.am      6 UNK        -0.4450 
     40 CA         28.6226   31.5247   -1.2868 C.3       6 UNK         0.0367 
     41 CB         29.2699   32.5359   -2.2467 C.3       6 UNK        -0.1929 
     42 C          29.1145   31.7579    0.1544 C.2       6 UNK         0.5070 
     43 O          28.5596   32.6101    0.8488 O.2       6 UNK        -0.5237 
     44 N          30.1380   31.0046    0.5782 N.am      7 UNK        -0.4739 
     45 CA         30.6518   31.0022    1.9444 C.3       7 UNK         0.0276 
     46 CB         32.1401   30.6283    1.9198 C.3       7 UNK        -0.1927 
     47 C          29.8633   29.9973    2.7941 C.2       7 UNK         0.5013 
     48 O          29.6468   28.8638    2.3592 O.2       7 UNK        -0.5193 
     49 N          29.4868   30.4027    4.0119 N.am      8 UNK        -0.4253 
     50 CA         28.7405   29.5852    4.9720 C.3       8 UNK         0.0242 
     51 CB         27.9376   30.5153    5.9011 C.3       8 UNK        -0.2000 
     52 C          29.6588   28.6197    5.7478 C.2       8 UNK         0.4948 
     53 O          29.6807   28.6542    6.9795 O.2       8 UNK        -0.5275 
     54 N          30.4190   27.7935    5.0139 N.am      9 UNK        -0.4246 
     55 CA         31.3627   26.7506    5.4542 C.3       9 UNK         0.0261 
     56 CB         30.6375   25.6463    6.2480 C.3       9 UNK        -0.1959 
     57 C          32.5927   27.2461    6.2399 C.2       9 UNK         0.5033 
     58 O          33.7006   26.7664    5.9941 O.2       9 UNK        -0.5390 
     59 N          32.3910   28.1775    7.1777 N.am      10 UNK        -0.4215 
     60 CA         33.4054   28.7732    8.0469 C.3       10 UNK         0.0240 
     61 CB         32.7076   29.3563    9.2900 C.3       10 UNK        -0.1982 
     62 C          34.2526   29.8181    7.2976 C.2       10 UNK         0.4970 
     63 O          34.1722   31.0110    7.5969 O.2       10 UNK        -0.4916 
     64 N          35.0368   29.3480    6.3222 N.am      11 UNK        -0.4279 
     65 CA         35.9271   30.1665    5.4827 C.3       11 UNK         0.1003 
     66 C          37.1747   30.7419    6.2159 C.2       11 UNK         0.5709 
     67 N          37.5260   30.2711    7.4070 N.am      11 UNK        -0.7358 
     68 O          37.8333   31.6385    5.6940 O.2       11 UNK        -0.4999 
     69 C69        36.3482   29.4196    4.1908 C.3       12 UNK        -0.0954 
     70 S70        34.9209   28.8556    3.2068 S.3       12 UNK        -0.2268 
     71 C71        35.3876   27.1292    2.8800 C.3       12 UNK         0.0203 
     72 H72        27.0355   20.8840   -1.3715 H         1 UNK         0.0888 
     73 H73        26.3508   19.8260   -0.1358 H         1 UNK         0.0888 
     74 H74        25.4372   21.2252   -0.7073 H         1 UNK         0.0888 
     75 H75        28.5891   22.2449   -0.5566 H         1 UNK         0.3017 
     76 H76        29.7664   23.5890    0.6590 H         1 UNK         0.0873 
     77 H77        28.6479   22.4244    3.2584 H         1 UNK         0.0745 
     78 H78        29.8618   21.6298    2.3065 H         1 UNK         0.0745 
     79 H79        32.9383   22.6966    2.8780 H         1 UNK         0.0705 
     80 H80        31.9276   22.5892    1.4633 H         1 UNK         0.0705 
     81 H81        33.9938   24.8734    3.5239 H         1 UNK         0.1334 
     82 H82        34.4734   27.7575    0.3864 H         1 UNK         0.1417 
     83 H83        31.7776   24.4661   -0.1267 H         1 UNK         0.1562 
     84 H84        32.3346   25.8898   -2.0316 H         1 UNK         0.0748 
     85 H85        33.6396   27.0354   -1.8946 H         1 UNK         0.0748 
     86 H86        29.7699   27.3031    0.1076 H         1 UNK         0.0940 
     87 H87        30.1236   26.1462   -1.1388 H         1 UNK         0.0940 
     88 H88        29.1199   27.8354   -2.8568 H         1 UNK         0.0703 
     89 H89        27.6327   26.2004   -0.9487 H         1 UNK         0.3081 
     90 H90        24.6463   26.0547   -2.9031 H         1 UNK         0.0719 
     91 H91        24.8990   23.7686   -1.9490 H         1 UNK         0.0809 
     92 H92        26.6004   24.0709   -1.6138 H         1 UNK         0.0809 
     93 H93        26.0237   24.0343   -3.2711 H         1 UNK         0.0809 
     94 H94        25.5654   25.8125   -0.0925 H         1 UNK         0.2990 
     95 H95        24.3638   28.9546    0.7726 H         1 UNK         0.0690 
     96 H96        22.8902   27.9653    2.5417 H         1 UNK         0.0788 
     97 H97        22.7176   26.5017    1.5708 H         1 UNK         0.0788 
     98 H98        22.1117   28.0320    0.9688 H         1 UNK         0.0788 
     99 H99        26.1542   28.1833    1.7363 H         1 UNK         0.2993 
    100 H100       27.6563   27.0275    2.7224 H         1 UNK         0.0949 
    101 H101       26.2242   25.3907    4.8886 H         1 UNK         0.0767 
    102 H102       27.7489   26.2553    5.0761 H         1 UNK         0.0767 
    103 H103       26.2592   27.1463    4.8179 H         1 UNK         0.0767 
    104 H104       28.0638   24.3860    3.4493 H         1 UNK         0.3013 
    105 H105       29.6323   30.0530   -2.4366 H         1 UNK         0.3121 
    106 H106       27.5425   31.6868   -1.2952 H         1 UNK         0.0774 
    107 H107       30.3532   32.4162   -2.2905 H         1 UNK         0.0815 
    108 H108       28.8774   32.4316   -3.2583 H         1 UNK         0.0815 
    109 H109       29.0685   33.5594   -1.9270 H         1 UNK         0.0815 
    110 H110       30.4929   30.2839   -0.0347 H         1 UNK         0.2987 
    111 H111       30.5539   32.0021    2.3736 H         1 UNK         0.0949 
    112 H112       32.7162   31.3195    1.3045 H         1 UNK         0.0806 
    113 H113       32.5613   30.6620    2.9252 H         1 UNK         0.0806 
    114 H114       32.2996   29.6207    1.5314 H         1 UNK         0.0806 
    115 H115       29.7368   31.3332    4.3157 H         1 UNK         0.3010 
    116 H116       28.0214   28.9717    4.4261 H         1 UNK         0.0829 
    117 H117       28.5901   31.1606    6.4907 H         1 UNK         0.0813 
    118 H118       27.3300   29.9392    6.6006 H         1 UNK         0.0813 
    119 H119       27.2576   31.1518    5.3347 H         1 UNK         0.0813 
    120 H120       30.3359   27.8961    4.0061 H         1 UNK         0.3038 
    121 H121       31.7444   26.3008    4.5362 H         1 UNK         0.0769 
    122 H122       29.8105   25.2244    5.6790 H         1 UNK         0.0811 
    123 H123       30.2392   26.0143    7.1939 H         1 UNK         0.0811 
    124 H124       31.3183   24.8261    6.4797 H         1 UNK         0.0811 
    125 H125       31.4308   28.5004    7.2947 H         1 UNK         0.3204 
    126 H126       34.0818   27.9850    8.3843 H         1 UNK         0.0748 
    127 H127       31.9892   30.1329    9.0234 H         1 UNK         0.0771 
    128 H128       32.1730   28.5833    9.8425 H         1 UNK         0.0771 
    129 H129       33.4320   29.8000    9.9744 H         1 UNK         0.0771 
    130 H130       34.9772   28.3606    6.0969 H         1 UNK         0.2980 
    131 H131       35.3474   31.0378    5.1716 H         1 UNK         0.0545 
    132 H132       38.3334   30.6559    7.8715 H         1 UNK         0.3459 
    133 H133       36.9957   29.5340    7.8423 H         1 UNK         0.3459 
    134 H134       36.9823   28.5670    4.4407 H         1 UNK         0.0616 
    135 H135       36.9482   30.0684    3.5501 H         1 UNK         0.0616 
    136 H136       35.5456   26.6211    3.8326 H         1 UNK         0.0634 
    137 H137       36.3411   27.1089    2.3506 H         1 UNK         0.0634 
@<TRIPOS>BOND
     1    1    2 1    
     2    1   72 1    
     3    1   73 1    
     4    1   74 1    
     5    2    3 2    
     6    2    4 am   BACKBONE|DICT|INTERRES
     7    4    5 1    
     8    4   75 1    
     9    5    6 1    
    10    5   35 1    
    11    5   76 1    
    12    6    7 1    
    13    6   77 1    
    14    6   78 1    
    15    7    8 1    
    16    8    9 1    
    17    8   79 1    
    18    8   80 1    
    19    9   10 ar   
    20    9   14 ar   
    21   10   11 ar   
    22   10   81 1    
    23   11   12 ar   
    24   11   71 1    
    25   12   13 ar   
    26   12   82 1    
    27   13   14 ar   
    28   13   15 1    
    29   14   83 1    
    30   15   16 1    
    31   15   84 1    
    32   15   85 1    
    33   16   17 1    
    34   17   18 1    
    35   17   86 1    
    36   17   87 1    
    37   18   19 1    
    38   18   37 1    
    39   18   88 1    
    40   19   20 am   BACKBONE|DICT|INTERRES
    41   19   89 1    
    42   20   21 2    
    43   20   22 1    
    44   22   23 1    
    45   22   24 1    
    46   22   90 1    
    47   23   91 1    
    48   23   92 1    
    49   23   93 1    
    50   24   25 am   BACKBONE|DICT|INTERRES
    51   24   94 1    
    52   25   26 2    
    53   25   27 1    
    54   27   28 1    
    55   27   29 1    
    56   27   95 1    
    57   28   96 1    
    58   28   97 1    
    59   28   98 1    
    60   29   30 am   BACKBONE|DICT|INTERRES
    61   29   99 1    
    62   30   31 2    
    63   30   32 1    
    64   32   33 1    
    65   32   34 1    
    66   32  100 1    
    67   33  101 1    
    68   33  102 1    
    69   33  103 1    
    70   34   35 am   BACKBONE|DICT|INTERRES
    71   34  104 1    
    72   35   36 2    
    73   37   38 2    
    74   37   39 am   BACKBONE|DICT|INTERRES
    75   39   40 1    
    76   39  105 1    
    77   40   41 1    
    78   40   42 1    
    79   40  106 1    
    80   41  107 1    
    81   41  108 1    
    82   41  109 1    
    83   42   43 2    
    84   42   44 am   BACKBONE|DICT|INTERRES
    85   44   45 1    
    86   44  110 1    
    87   45   46 1    
    88   45   47 1    
    89   45  111 1    
    90   46  112 1    
    91   46  113 1    
    92   46  114 1    
    93   47   48 2    
    94   47   49 am   BACKBONE|DICT|INTERRES
    95   49   50 1    
    96   49  115 1    
    97   50   51 1    
    98   50   52 1    
    99   50  116 1    
   100   51  117 1    
   101   51  118 1    
   102   51  119 1    
   103   52   53 2    
   104   52   54 am   BACKBONE|DICT|INTERRES
   105   54   55 1    
   106   54  120 1    
   107   55   56 1    
   108   55   57 1    
   109   55  121 1    
   110   56  122 1    
   111   56  123 1    
   112   56  124 1    
   113   57   58 2    
   114   57   59 am   BACKBONE|DICT|INTERRES
   115   59   60 1    
   116   59  125 1    
   117   60   61 1    
   118   60   62 1    
   119   60  126 1    
   120   61  127 1    
   121   61  128 1    
   122   61  129 1    
   123   62   63 2    
   124   62   64 am   BACKBONE|DICT|INTERRES
   125   64   65 1    
   126   64  130 1    
   127   65   66 1    
   128   65   69 1    
   129   65  131 1    
   130   66   67 am   BACKBONE|DICT|INTERRES
   131   66   68 2    
   132   67  132 1    
   133   67  133 1    
   134   69   70 1    
   135   69  134 1    
   136   69  135 1    
   137   70   71 1    
   138   71  136 1    
   139   71  137 1    
@<TRIPOS>SUBSTRUCTURE
     1 UNK         1 GROUP             0       ****    0 ROOT    
