@<TRIPOS>MOLECULE
3R136
137   139    1
SMALL
USER_CHARGES


@<TRIPOS>ATOM
      1 CA         25.9213   27.4347   -4.6827 C.3       0 UNK        -0.1979 
      2 C          26.3902   26.9553   -3.3183 C.2       0 UNK         0.4864 
      3 O          25.7951   26.0320   -2.7583 O.2       0 UNK        -0.5359 
      4 N          27.4636   27.5591   -2.7830 N.am      1 UNK        -0.4318 
      5 CA         28.0339   27.2654   -1.4599 C.3       1 UNK         0.0824 
      6 C6         29.2082   28.2140   -1.1087 C.3       12 UNK        -0.0944 
      7 S7         29.5295   28.2863    0.6871 S.3       12 UNK        -0.2672 
      8 C8         31.0039   27.2265    0.8421 C.3       12 UNK         0.0333 
      9 C9         30.9965   26.4997    2.1769 C.ar      12 UNK        -0.0807 
     10 C10        31.3160   27.1828    3.3532 C.ar      12 UNK        -0.0894 
     11 C11        31.2539   26.5349    4.5892 C.ar      12 UNK        -0.0804 
     12 C12        30.8368   25.2020    4.6479 C.ar      12 UNK        -0.0824 
     13 C13        30.5009   24.5102    3.4794 C.ar      12 UNK        -0.0762 
     14 C14        30.6236   25.1533    2.2431 C.ar      12 UNK        -0.0782 
     15 C15        29.9685   23.0826    3.5600 C.3       12 UNK         0.0230 
     16 S16        28.2575   22.9160    2.9304 S.3       12 UNK        -0.2608 
     17 C17        27.3622   24.2303    3.8324 C.3       12 UNK        -0.0989 
     18 CA         27.1871   25.4845    2.9366 C.3       5 UNK         0.0716 
     19 N          26.2648   25.2928    1.8127 N.am      5 UNK        -0.4135 
     20 C          24.9263   25.2481    1.8547 C.2       4 UNK         0.5031 
     21 O          24.2637   25.2522    2.8928 O.2       4 UNK        -0.5229 
     22 CA         24.1850   25.2344    0.5074 C.3       4 UNK         0.0329 
     23 CB         23.9302   26.6737    0.0290 C.3       4 UNK        -0.2001 
     24 N          24.8674   24.4901   -0.5536 N.am      4 UNK        -0.4303 
     25 C          24.9229   23.1519   -0.6214 C.2       3 UNK         0.5044 
     26 O          24.4853   22.4026    0.2524 O.2       3 UNK        -0.5152 
     27 CA         25.5382   22.5427   -1.8907 C.3       3 UNK         0.0319 
     28 CB         24.5428   22.6168   -3.0608 C.3       3 UNK        -0.2001 
     29 N          26.7725   23.2316   -2.2630 N.am      3 UNK        -0.4354 
     30 C          28.0069   22.7636   -2.0277 C.2       2 UNK         0.4964 
     31 O          28.2407   21.6498   -1.5570 O.2       2 UNK        -0.5047 
     32 CA         29.1940   23.6883   -2.3683 C.3       2 UNK         0.0288 
     33 CB         29.7818   23.3251   -3.7417 C.3       2 UNK        -0.2113 
     34 N          28.8723   25.1192   -2.3482 N.am      2 UNK        -0.4145 
     35 C          28.4247   25.7841   -1.2731 C.2       1 UNK         0.5006 
     36 O          28.2585   25.2594   -0.1743 O.2       1 UNK        -0.5103 
     37 C          26.8866   26.7803    3.7134 C.2       5 UNK         0.5055 
     38 O          26.4182   26.7364    4.8532 O.2       5 UNK        -0.5220 
     39 N          27.1445   27.9104    3.0413 N.am      6 UNK        -0.4450 
     40 CA         27.0350   29.2652    3.5739 C.3       6 UNK         0.0367 
     41 CB         26.6188   30.2177    2.4331 C.3       6 UNK        -0.1929 
     42 C          28.3501   29.6535    4.2785 C.2       6 UNK         0.5070 
     43 O          28.6850   29.0460    5.2953 O.2       6 UNK        -0.5237 
     44 N          29.0635   30.6615    3.7572 N.am      7 UNK        -0.4739 
     45 CA         30.2811   31.2105    4.3646 C.3       7 UNK         0.0276 
     46 CB         29.9120   32.4495    5.2017 C.3       7 UNK        -0.1927 
     47 C          31.3877   31.5343    3.3471 C.2       7 UNK         0.5013 
     48 O          32.4154   32.0782    3.7524 O.2       7 UNK        -0.5193 
     49 N          31.2000   31.1982    2.0599 N.am      8 UNK        -0.4253 
     50 CA         32.1064   31.5766    0.9616 C.3       8 UNK         0.0242 
     51 CB         31.4786   31.1940   -0.3883 C.3       8 UNK        -0.2000 
     52 C          33.5335   31.0039    1.0689 C.2       8 UNK         0.4948 
     53 O          34.4602   31.5873    0.5065 O.2       8 UNK        -0.5275 
     54 N          33.6892   29.8957    1.8051 N.am      9 UNK        -0.4246 
     55 CA         34.9755   29.2748    2.1306 C.3       9 UNK         0.0261 
     56 CB         34.7462   27.7859    2.4435 C.3       9 UNK        -0.1959 
     57 C          35.7196   29.9661    3.2929 C.2       9 UNK         0.5033 
     58 O          36.8487   29.5668    3.5812 O.2       9 UNK        -0.5390 
     59 N          35.0921   30.9620    3.9433 N.am      10 UNK        -0.4215 
     60 CA         35.5805   31.7129    5.1073 C.3       10 UNK         0.0240 
     61 CB         36.8178   32.5625    4.7436 C.3       10 UNK        -0.1982 
     62 C          35.7963   30.8118    6.3386 C.2       10 UNK         0.4970 
     63 O          36.8535   30.8665    6.9707 O.2       10 UNK        -0.4916 
     64 N          34.7847   29.9869    6.6402 N.am      11 UNK        -0.4279 
     65 CA         34.7473   29.0669    7.7872 C.3       11 UNK         0.1003 
     66 C          34.8385   29.7980    9.1559 C.2       11 UNK         0.5709 
     67 N          35.5006   29.1998   10.1370 N.am      11 UNK        -0.7358 
     68 O          34.2784   30.8764    9.3465 O.2       11 UNK        -0.4999 
     69 C69        33.4909   28.1578    7.7495 C.3       12 UNK        -0.0954 
     70 S70        33.3835   27.1534    6.2310 S.3       12 UNK        -0.2268 
     71 C71        31.6087   27.2855    5.8624 C.3       12 UNK         0.0203 
     72 H72        25.9521   26.6137   -5.3984 H         1 UNK         0.0888 
     73 H73        24.8943   27.7927   -4.6189 H         1 UNK         0.0888 
     74 H74        26.5409   28.2448   -5.0664 H         1 UNK         0.0888 
     75 H75        27.9116   28.3042   -3.2978 H         1 UNK         0.3017 
     76 H76        27.2285   27.4611   -0.7493 H         1 UNK         0.0873 
     77 H77        30.1167   27.9507   -1.6540 H         1 UNK         0.0745 
     78 H78        28.9638   29.2317   -1.4175 H         1 UNK         0.0745 
     79 H79        31.0366   26.5027    0.0267 H         1 UNK         0.0705 
     80 H80        31.9025   27.8360    0.7457 H         1 UNK         0.0705 
     81 H81        31.5957   28.2245    3.3118 H         1 UNK         0.1334 
     82 H82        30.7595   24.7099    5.6079 H         1 UNK         0.1417 
     83 H83        30.3525   24.6229    1.3400 H         1 UNK         0.1562 
     84 H84        29.9975   22.7172    4.5877 H         1 UNK         0.0748 
     85 H85        30.6214   22.4258    2.9839 H         1 UNK         0.0748 
     86 H86        27.9142   24.4693    4.7432 H         1 UNK         0.0940 
     87 H87        26.3927   23.8501    4.1582 H         1 UNK         0.0940 
     88 H88        28.1434   25.6813    2.4630 H         1 UNK         0.0703 
     89 H89        26.7300   25.2320    0.9110 H         1 UNK         0.3081 
     90 H90        23.2141   24.7627    0.6750 H         1 UNK         0.0719 
     91 H91        24.8607   27.2040   -0.1743 H         1 UNK         0.0809 
     92 H92        23.3324   26.6884   -0.8827 H         1 UNK         0.0809 
     93 H93        23.3866   27.2459    0.7822 H         1 UNK         0.0809 
     94 H94        25.2212   25.0362   -1.3370 H         1 UNK         0.2990 
     95 H95        25.7374   21.4878   -1.6901 H         1 UNK         0.0690 
     96 H96        24.9430   22.1291   -3.9498 H         1 UNK         0.0788 
     97 H97        24.3012   23.6471   -3.3258 H         1 UNK         0.0788 
     98 H98        23.6071   22.1155   -2.8096 H         1 UNK         0.0788 
     99 H99        26.6675   24.1727   -2.6258 H         1 UNK         0.2993 
    100 H100       29.9599   23.5152   -1.6090 H         1 UNK         0.0949 
    101 H101       30.6816   23.9026   -3.9547 H         1 UNK         0.0767 
    102 H102       30.0596   22.2707   -3.7811 H         1 UNK         0.0767 
    103 H103       29.0672   23.5040   -4.5462 H         1 UNK         0.0767 
    104 H104       28.9638   25.6206   -3.2197 H         1 UNK         0.3013 
    105 H105       27.5848   27.8313    2.1343 H         1 UNK         0.3121 
    106 H106       26.2489   29.2926    4.3316 H         1 UNK         0.0774 
    107 H107       26.5018   31.2404    2.7945 H         1 UNK         0.0815 
    108 H108       27.3393   30.2291    1.6147 H         1 UNK         0.0815 
    109 H109       25.6568   29.9214    2.0140 H         1 UNK         0.0815 
    110 H110       28.7030   31.1391    2.9432 H         1 UNK         0.2987 
    111 H111       30.7221   30.4742    5.0380 H         1 UNK         0.0949 
    112 H112       29.4838   33.2393    4.5836 H         1 UNK         0.0806 
    113 H113       29.1875   32.2010    5.9774 H         1 UNK         0.0806 
    114 H114       30.7870   32.8648    5.7038 H         1 UNK         0.0806 
    115 H115       30.3646   30.6927    1.8030 H         1 UNK         0.3010 
    116 H116       32.1999   32.6645    0.9899 H         1 UNK         0.0829 
    117 H117       30.4615   31.5742   -0.4838 H         1 UNK         0.0813 
    118 H118       32.0571   31.6103   -1.2141 H         1 UNK         0.0813 
    119 H119       31.4536   30.1143   -0.5309 H         1 UNK         0.0813 
    120 H120       32.8681   29.4906    2.2249 H         1 UNK         0.3038 
    121 H121       35.6231   29.3378    1.2533 H         1 UNK         0.0769 
    122 H122       34.2442   27.2750    1.6220 H         1 UNK         0.0811 
    123 H123       34.1475   27.6495    3.3436 H         1 UNK         0.0811 
    124 H124       35.6939   27.2716    2.6085 H         1 UNK         0.0811 
    125 H125       34.1616   31.2313    3.6345 H         1 UNK         0.3204 
    126 H126       34.7814   32.4053    5.3773 H         1 UNK         0.0748 
    127 H127       37.1036   33.2095    5.5739 H         1 UNK         0.0771 
    128 H128       37.6825   31.9429    4.5037 H         1 UNK         0.0771 
    129 H129       36.6179   33.2055    3.8865 H         1 UNK         0.0771 
    130 H130       33.9558   30.0080    6.0677 H         1 UNK         0.2980 
    131 H131       35.6270   28.4263    7.6976 H         1 UNK         0.0545 
    132 H132       35.5565   29.6516   11.0364 H         1 UNK         0.3459 
    133 H133       35.9516   28.3092    9.9953 H         1 UNK         0.3459 
    134 H134       32.5872   28.7617    7.8529 H         1 UNK         0.0616 
    135 H135       33.4936   27.4675    8.5951 H         1 UNK         0.0616 
    136 H136       31.3371   28.3362    5.7640 H         1 UNK         0.0634 
    137 H137       31.0329   26.8957    6.7032 H         1 UNK         0.0634 
@<TRIPOS>BOND
     1    1    2 1    
     2    1   72 1    
     3    1   73 1    
     4    1   74 1    
     5    2    3 2    
     6    2    4 am   BACKBONE|DICT|INTERRES
     7    4    5 1    
     8    4   75 1    
     9    5    6 1    
    10    5   35 1    
    11    5   76 1    
    12    6    7 1    
    13    6   77 1    
    14    6   78 1    
    15    7    8 1    
    16    8    9 1    
    17    8   79 1    
    18    8   80 1    
    19    9   10 ar   
    20    9   14 ar   
    21   10   11 ar   
    22   10   81 1    
    23   11   12 ar   
    24   11   71 1    
    25   12   13 ar   
    26   12   82 1    
    27   13   14 ar   
    28   13   15 1    
    29   14   83 1    
    30   15   16 1    
    31   15   84 1    
    32   15   85 1    
    33   16   17 1    
    34   17   18 1    
    35   17   86 1    
    36   17   87 1    
    37   18   19 1    
    38   18   37 1    
    39   18   88 1    
    40   19   20 am   BACKBONE|DICT|INTERRES
    41   19   89 1    
    42   20   21 2    
    43   20   22 1    
    44   22   23 1    
    45   22   24 1    
    46   22   90 1    
    47   23   91 1    
    48   23   92 1    
    49   23   93 1    
    50   24   25 am   BACKBONE|DICT|INTERRES
    51   24   94 1    
    52   25   26 2    
    53   25   27 1    
    54   27   28 1    
    55   27   29 1    
    56   27   95 1    
    57   28   96 1    
    58   28   97 1    
    59   28   98 1    
    60   29   30 am   BACKBONE|DICT|INTERRES
    61   29   99 1    
    62   30   31 2    
    63   30   32 1    
    64   32   33 1    
    65   32   34 1    
    66   32  100 1    
    67   33  101 1    
    68   33  102 1    
    69   33  103 1    
    70   34   35 am   BACKBONE|DICT|INTERRES
    71   34  104 1    
    72   35   36 2    
    73   37   38 2    
    74   37   39 am   BACKBONE|DICT|INTERRES
    75   39   40 1    
    76   39  105 1    
    77   40   41 1    
    78   40   42 1    
    79   40  106 1    
    80   41  107 1    
    81   41  108 1    
    82   41  109 1    
    83   42   43 2    
    84   42   44 am   BACKBONE|DICT|INTERRES
    85   44   45 1    
    86   44  110 1    
    87   45   46 1    
    88   45   47 1    
    89   45  111 1    
    90   46  112 1    
    91   46  113 1    
    92   46  114 1    
    93   47   48 2    
    94   47   49 am   BACKBONE|DICT|INTERRES
    95   49   50 1    
    96   49  115 1    
    97   50   51 1    
    98   50   52 1    
    99   50  116 1    
   100   51  117 1    
   101   51  118 1    
   102   51  119 1    
   103   52   53 2    
   104   52   54 am   BACKBONE|DICT|INTERRES
   105   54   55 1    
   106   54  120 1    
   107   55   56 1    
   108   55   57 1    
   109   55  121 1    
   110   56  122 1    
   111   56  123 1    
   112   56  124 1    
   113   57   58 2    
   114   57   59 am   BACKBONE|DICT|INTERRES
   115   59   60 1    
   116   59  125 1    
   117   60   61 1    
   118   60   62 1    
   119   60  126 1    
   120   61  127 1    
   121   61  128 1    
   122   61  129 1    
   123   62   63 2    
   124   62   64 am   BACKBONE|DICT|INTERRES
   125   64   65 1    
   126   64  130 1    
   127   65   66 1    
   128   65   69 1    
   129   65  131 1    
   130   66   67 am   BACKBONE|DICT|INTERRES
   131   66   68 2    
   132   67  132 1    
   133   67  133 1    
   134   69   70 1    
   135   69  134 1    
   136   69  135 1    
   137   70   71 1    
   138   71  136 1    
   139   71  137 1    
@<TRIPOS>SUBSTRUCTURE
     1 UNK         1 GROUP             0       ****    0 ROOT    
