@<TRIPOS>MOLECULE
3R136
137   139    1
SMALL
USER_CHARGES


@<TRIPOS>ATOM
      1 CA         25.0071   21.5958    2.6945 C.3       0 UNK        -0.1979 
      2 C          25.9621   22.2684    1.7208 C.2       0 UNK         0.4864 
      3 O          25.7192   23.4072    1.3180 O.2       0 UNK        -0.5359 
      4 N          27.0533   21.5801    1.3513 N.am      1 UNK        -0.4318 
      5 CA         28.0866   22.0598    0.4221 C.3       1 UNK         0.0824 
      6 C6         29.1373   20.9669    0.0990 C.3       12 UNK        -0.0944 
      7 S7         30.0934   20.3849    1.5482 S.3       12 UNK        -0.2672 
      8 C8         31.8147   20.5113    0.9615 C.3       12 UNK         0.0333 
      9 C9         32.3253   21.9466    0.8897 C.ar      12 UNK        -0.0807 
     10 C10        32.8720   22.5620    2.0212 C.ar      12 UNK        -0.0894 
     11 C11        33.4163   23.8495    1.9398 C.ar      12 UNK        -0.0804 
     12 C12        33.3848   24.5349    0.7219 C.ar      12 UNK        -0.0824 
     13 C13        32.8430   23.9294   -0.4157 C.ar      12 UNK        -0.0762 
     14 C14        32.3188   22.6367   -0.3261 C.ar      12 UNK        -0.0782 
     15 C15        32.8650   24.6446   -1.7580 C.3       12 UNK         0.0230 
     16 S16        31.2142   25.2336   -2.2368 S.3       12 UNK        -0.2608 
     17 C17        31.0286   26.6841   -1.1492 C.3       12 UNK        -0.0989 
     18 CA         29.7790   27.5069   -1.5421 C.3       5 UNK         0.0716 
     19 N          28.5303   26.8448   -1.1629 N.am      5 UNK        -0.4135 
     20 C          27.3246   27.1538   -1.6600 C.2       4 UNK         0.5031 
     21 O          27.1337   28.0188   -2.5164 O.2       4 UNK        -0.5229 
     22 CA         26.1205   26.3743   -1.1037 C.3       4 UNK         0.0329 
     23 CB         25.9819   25.0075   -1.7929 C.3       4 UNK        -0.2001 
     24 N          26.1961   26.1966    0.3470 N.am      4 UNK        -0.4303 
     25 C          26.1095   27.2007    1.2321 C.2       3 UNK         0.5044 
     26 O          25.8531   28.3649    0.9236 O.2       3 UNK        -0.5152 
     27 CA         26.3521   26.8506    2.7085 C.3       3 UNK         0.0319 
     28 CB         25.0404   26.4219    3.3854 C.3       3 UNK        -0.2001 
     29 N          27.3562   25.8022    2.8917 N.am      3 UNK        -0.4354 
     30 C          28.6641   25.9234    2.6198 C.2       2 UNK         0.4964 
     31 O          29.1976   26.9338    2.1619 O.2       2 UNK        -0.5047 
     32 CA         29.5145   24.6706    2.8703 C.3       2 UNK         0.0288 
     33 CB         29.6165   24.3749    4.3767 C.3       2 UNK        -0.2113 
     34 N          28.9875   23.4891    2.1937 N.am      2 UNK        -0.4145 
     35 C          28.7409   23.3786    0.8806 C.2       1 UNK         0.5006 
     36 O          28.9425   24.2730    0.0610 O.2       1 UNK        -0.5103 
     37 C          29.8683   28.9524   -1.0182 C.2       5 UNK         0.5055 
     38 O          30.2938   29.8227   -1.7812 O.2       5 UNK        -0.5220 
     39 N          29.4806   29.2064    0.2399 N.am      6 UNK        -0.4450 
     40 CA         29.5282   30.5431    0.8324 C.3       6 UNK         0.0367 
     41 CB         30.9610   30.8573    1.3004 C.3       6 UNK        -0.1929 
     42 C          28.5414   30.6635    1.9965 C.2       6 UNK         0.5070 
     43 O          28.3740   29.7190    2.7671 O.2       6 UNK        -0.5237 
     44 N          27.9433   31.8515    2.1459 N.am      7 UNK        -0.4739 
     45 CA         27.0899   32.2159    3.2784 C.3       7 UNK         0.0276 
     46 CB         26.1850   33.3920    2.8664 C.3       7 UNK        -0.1927 
     47 C          27.9602   32.5406    4.5064 C.2       7 UNK         0.5013 
     48 O          28.1762   33.7153    4.8117 O.2       7 UNK        -0.5193 
     49 N          28.4820   31.4821    5.1419 N.am      8 UNK        -0.4253 
     50 CA         29.5235   31.4914    6.1753 C.3       8 UNK         0.0242 
     51 CB         29.0856   32.2747    7.4352 C.3       8 UNK        -0.2000 
     52 C          30.8648   31.9401    5.5631 C.2       8 UNK         0.4948 
     53 O          31.1798   31.5050    4.4532 O.2       8 UNK        -0.5275 
     54 N          31.6304   32.7801    6.2759 N.am      9 UNK        -0.4246 
     55 CA         32.8974   33.3947    5.8574 C.3       9 UNK         0.0261 
     56 CB         32.6371   34.4848    4.7927 C.3       9 UNK        -0.1959 
     57 C          33.9501   32.3560    5.4220 C.2       9 UNK         0.5033 
     58 O          34.6531   31.8169    6.2779 O.2       9 UNK        -0.5390 
     59 N          34.0314   32.0928    4.1102 N.am      10 UNK        -0.4215 
     60 CA         34.9099   31.0977    3.4943 C.3       10 UNK         0.0240 
     61 CB         34.9171   31.3007    1.9705 C.3       10 UNK        -0.1982 
     62 C          34.5443   29.6431    3.8430 C.2       10 UNK         0.4970 
     63 O          35.4440   28.8018    3.8587 O.2       10 UNK        -0.4916 
     64 N          33.2633   29.3670    4.1232 N.am      11 UNK        -0.4279 
     65 CA         32.7884   28.0631    4.5956 C.3       11 UNK         0.1003 
     66 C          31.4818   28.2376    5.4076 C.2       11 UNK         0.5709 
     67 N          30.3089   28.1341    4.7970 N.am      11 UNK        -0.7358 
     68 O          31.5312   28.4647    6.6141 O.2       11 UNK        -0.4999 
     69 C69        32.7454   26.9618    3.4942 C.3       12 UNK        -0.0954 
     70 S70        32.9077   25.3056    4.2451 S.3       12 UNK        -0.2268 
     71 C71        34.0939   24.4713    3.1528 C.3       12 UNK         0.0203 
     72 H72        25.3499   20.6021    2.9822 H         1 UNK         0.0888 
     73 H73        24.9088   22.1967    3.5981 H         1 UNK         0.0888 
     74 H74        24.0208   21.4972    2.2419 H         1 UNK         0.0888 
     75 H75        27.2057   20.6536    1.7248 H         1 UNK         0.3017 
     76 H76        27.5681   22.2883   -0.5113 H         1 UNK         0.0873 
     77 H77        28.6366   20.1004   -0.3356 H         1 UNK         0.0745 
     78 H78        29.8135   21.3226   -0.6784 H         1 UNK         0.0745 
     79 H79        32.4510   19.9383    1.6376 H         1 UNK         0.0705 
     80 H80        31.9013   20.0245   -0.0113 H         1 UNK         0.0705 
     81 H81        32.8997   22.0271    2.9608 H         1 UNK         0.1334 
     82 H82        33.8080   25.5278    0.6542 H         1 UNK         0.1417 
     83 H83        31.9202   22.1654   -1.2138 H         1 UNK         0.1562 
     84 H84        33.2261   23.9567   -2.5239 H         1 UNK         0.0748 
     85 H85        33.5668   25.4801   -1.7476 H         1 UNK         0.0748 
     86 H86        31.9363   27.2848   -1.2384 H         1 UNK         0.0940 
     87 H87        30.9722   26.3575   -0.1084 H         1 UNK         0.0940 
     88 H88        29.7734   27.5903   -2.6316 H         1 UNK         0.0703 
     89 H89        28.6150   26.0590   -0.5222 H         1 UNK         0.3081 
     90 H90        25.2200   26.9528   -1.3206 H         1 UNK         0.0719 
     91 H91        26.8631   24.3850   -1.6403 H         1 UNK         0.0809 
     92 H92        25.1166   24.4598   -1.4189 H         1 UNK         0.0809 
     93 H93        25.8517   25.1272   -2.8692 H         1 UNK         0.0809 
     94 H94        26.3320   25.2515    0.6929 H         1 UNK         0.2990 
     95 H95        26.7143   27.7499    3.2091 H         1 UNK         0.0690 
     96 H96        25.1826   26.2467    4.4519 H         1 UNK         0.0788 
     97 H97        24.6379   25.5088    2.9442 H         1 UNK         0.0788 
     98 H98        24.2791   27.1966    3.2837 H         1 UNK         0.0788 
     99 H99        27.0169   24.9073    3.2119 H         1 UNK         0.2993 
    100 H100       30.5139   24.8589    2.4729 H         1 UNK         0.0949 
    101 H101       30.3238   23.5682    4.5713 H         1 UNK         0.0767 
    102 H102       29.9670   25.2501    4.9249 H         1 UNK         0.0767 
    103 H103       28.6560   24.0879    4.8058 H         1 UNK         0.0767 
    104 H104       28.7979   22.6829    2.7704 H         1 UNK         0.3013 
    105 H105       29.1499   28.4618    0.8520 H         1 UNK         0.3121 
    106 H106       29.2359   31.2738    0.0748 H         1 UNK         0.0774 
    107 H107       31.0136   31.8416    1.7671 H         1 UNK         0.0815 
    108 H108       31.3063   30.1279    2.0337 H         1 UNK         0.0815 
    109 H109       31.6643   30.8571    0.4682 H         1 UNK         0.0815 
    110 H110       28.1669   32.5936    1.4984 H         1 UNK         0.2987 
    111 H111       26.4455   31.3706    3.5322 H         1 UNK         0.0949 
    112 H112       26.7638   34.2667    2.5668 H         1 UNK         0.0806 
    113 H113       25.5356   33.1189    2.0344 H         1 UNK         0.0806 
    114 H114       25.5412   33.6948    3.6932 H         1 UNK         0.0806 
    115 H115       28.3379   30.5862    4.6868 H         1 UNK         0.3010 
    116 H116       29.6588   30.4524    6.4738 H         1 UNK         0.0829 
    117 H117       28.1039   31.9464    7.7768 H         1 UNK         0.0813 
    118 H118       29.7777   32.1098    8.2618 H         1 UNK         0.0813 
    119 H119       29.0298   33.3494    7.2591 H         1 UNK         0.0813 
    120 H120       31.3013   33.0469    7.1930 H         1 UNK         0.3038 
    121 H121       33.3067   33.8923    6.7381 H         1 UNK         0.0769 
    122 H122       32.1167   34.0980    3.9159 H         1 UNK         0.0811 
    123 H123       33.5705   34.9363    4.4537 H         1 UNK         0.0811 
    124 H124       32.0250   35.2882    5.2028 H         1 UNK         0.0811 
    125 H125       33.3642   32.5480    3.5040 H         1 UNK         0.3204 
    126 H126       35.9214   31.2756    3.8656 H         1 UNK         0.0748 
    127 H127       35.2565   32.3019    1.7043 H         1 UNK         0.0771 
    128 H128       35.5910   30.5926    1.4859 H         1 UNK         0.0771 
    129 H129       33.9270   31.1546    1.5385 H         1 UNK         0.0771 
    130 H130       32.5751   30.1162    4.1341 H         1 UNK         0.2980 
    131 H131       33.5286   27.7449    5.3336 H         1 UNK         0.0545 
    132 H132       30.2301   27.9763    3.8007 H         1 UNK         0.3459 
    133 H133       29.4700   28.2343    5.3419 H         1 UNK         0.3459 
    134 H134       31.8369   27.0112    2.8940 H         1 UNK         0.0616 
    135 H135       33.5664   27.1005    2.7908 H         1 UNK         0.0616 
    136 H136       34.5946   23.6892    3.7252 H         1 UNK         0.0634 
    137 H137       34.8785   25.1661    2.8492 H         1 UNK         0.0634 
@<TRIPOS>BOND
     1    1    2 1    
     2    1   72 1    
     3    1   73 1    
     4    1   74 1    
     5    2    3 2    
     6    2    4 am   BACKBONE|DICT|INTERRES
     7    4    5 1    
     8    4   75 1    
     9    5    6 1    
    10    5   35 1    
    11    5   76 1    
    12    6    7 1    
    13    6   77 1    
    14    6   78 1    
    15    7    8 1    
    16    8    9 1    
    17    8   79 1    
    18    8   80 1    
    19    9   10 ar   
    20    9   14 ar   
    21   10   11 ar   
    22   10   81 1    
    23   11   12 ar   
    24   11   71 1    
    25   12   13 ar   
    26   12   82 1    
    27   13   14 ar   
    28   13   15 1    
    29   14   83 1    
    30   15   16 1    
    31   15   84 1    
    32   15   85 1    
    33   16   17 1    
    34   17   18 1    
    35   17   86 1    
    36   17   87 1    
    37   18   19 1    
    38   18   37 1    
    39   18   88 1    
    40   19   20 am   BACKBONE|DICT|INTERRES
    41   19   89 1    
    42   20   21 2    
    43   20   22 1    
    44   22   23 1    
    45   22   24 1    
    46   22   90 1    
    47   23   91 1    
    48   23   92 1    
    49   23   93 1    
    50   24   25 am   BACKBONE|DICT|INTERRES
    51   24   94 1    
    52   25   26 2    
    53   25   27 1    
    54   27   28 1    
    55   27   29 1    
    56   27   95 1    
    57   28   96 1    
    58   28   97 1    
    59   28   98 1    
    60   29   30 am   BACKBONE|DICT|INTERRES
    61   29   99 1    
    62   30   31 2    
    63   30   32 1    
    64   32   33 1    
    65   32   34 1    
    66   32  100 1    
    67   33  101 1    
    68   33  102 1    
    69   33  103 1    
    70   34   35 am   BACKBONE|DICT|INTERRES
    71   34  104 1    
    72   35   36 2    
    73   37   38 2    
    74   37   39 am   BACKBONE|DICT|INTERRES
    75   39   40 1    
    76   39  105 1    
    77   40   41 1    
    78   40   42 1    
    79   40  106 1    
    80   41  107 1    
    81   41  108 1    
    82   41  109 1    
    83   42   43 2    
    84   42   44 am   BACKBONE|DICT|INTERRES
    85   44   45 1    
    86   44  110 1    
    87   45   46 1    
    88   45   47 1    
    89   45  111 1    
    90   46  112 1    
    91   46  113 1    
    92   46  114 1    
    93   47   48 2    
    94   47   49 am   BACKBONE|DICT|INTERRES
    95   49   50 1    
    96   49  115 1    
    97   50   51 1    
    98   50   52 1    
    99   50  116 1    
   100   51  117 1    
   101   51  118 1    
   102   51  119 1    
   103   52   53 2    
   104   52   54 am   BACKBONE|DICT|INTERRES
   105   54   55 1    
   106   54  120 1    
   107   55   56 1    
   108   55   57 1    
   109   55  121 1    
   110   56  122 1    
   111   56  123 1    
   112   56  124 1    
   113   57   58 2    
   114   57   59 am   BACKBONE|DICT|INTERRES
   115   59   60 1    
   116   59  125 1    
   117   60   61 1    
   118   60   62 1    
   119   60  126 1    
   120   61  127 1    
   121   61  128 1    
   122   61  129 1    
   123   62   63 2    
   124   62   64 am   BACKBONE|DICT|INTERRES
   125   64   65 1    
   126   64  130 1    
   127   65   66 1    
   128   65   69 1    
   129   65  131 1    
   130   66   67 am   BACKBONE|DICT|INTERRES
   131   66   68 2    
   132   67  132 1    
   133   67  133 1    
   134   69   70 1    
   135   69  134 1    
   136   69  135 1    
   137   70   71 1    
   138   71  136 1    
   139   71  137 1    
@<TRIPOS>SUBSTRUCTURE
     1 UNK         1 GROUP             0       ****    0 ROOT    
