@<TRIPOS>MOLECULE
3R136
137   139    1
SMALL
USER_CHARGES


@<TRIPOS>ATOM
      1 CA         30.4775   21.8329   -4.5426 C.3       0 UNK        -0.1979 
      2 C          30.0692   22.9926   -3.6461 C.2       0 UNK         0.4864 
      3 O          29.5241   23.9808   -4.1385 O.2       0 UNK        -0.5359 
      4 N          30.3359   22.8799   -2.3371 N.am      1 UNK        -0.4318 
      5 CA         29.9850   23.8752   -1.3175 C.3       1 UNK         0.0824 
      6 C6         30.7308   23.5932    0.0079 C.3       12 UNK        -0.0944 
      7 S7         30.6343   24.9879    1.1708 S.3       12 UNK        -0.2672 
      8 C8         30.5290   24.1035    2.7547 C.3       12 UNK         0.0333 
      9 C9         30.2871   25.0965    3.8744 C.ar      12 UNK        -0.0807 
     10 C10        31.3586   25.7812    4.4531 C.ar      12 UNK        -0.0894 
     11 C11        31.1282   26.7672    5.4156 C.ar      12 UNK        -0.0804 
     12 C12        29.8153   27.0643    5.7964 C.ar      12 UNK        -0.0824 
     13 C13        28.7366   26.3693    5.2391 C.ar      12 UNK        -0.0762 
     14 C14        28.9834   25.3700    4.2929 C.ar      12 UNK        -0.0782 
     15 C15        27.3097   26.7219    5.6498 C.3       12 UNK         0.0230 
     16 S16        26.1581   26.8932    4.2404 S.3       12 UNK        -0.2608 
     17 C17        27.0505   28.0487    3.1421 C.3       12 UNK        -0.0989 
     18 CA         27.4064   27.3940    1.7749 C.3       5 UNK         0.0716 
     19 N          26.2239   27.0003    0.9993 N.am      5 UNK        -0.4135 
     20 C          25.2959   27.8254    0.4840 C.2       4 UNK         0.5031 
     21 O          25.3261   29.0521    0.5915 O.2       4 UNK        -0.5229 
     22 CA         24.1286   27.1923   -0.2976 C.3       4 UNK         0.0329 
     23 CB         24.3805   27.3116   -1.8102 C.3       4 UNK        -0.2001 
     24 N          23.8999   25.7867    0.0324 N.am      4 UNK        -0.4303 
     25 C          23.4576   25.3181    1.2089 C.2       3 UNK         0.5044 
     26 O          23.0398   26.0346    2.1184 O.2       3 UNK        -0.5152 
     27 CA         23.5105   23.7889    1.4106 C.3       3 UNK         0.0319 
     28 CB         22.0975   23.1859    1.3504 C.3       3 UNK        -0.2001 
     29 N          24.3686   23.1012    0.4360 N.am      3 UNK        -0.4354 
     30 C          25.6989   23.2472    0.3441 C.2       2 UNK         0.4964 
     31 O          26.3631   23.8961    1.1555 O.2       2 UNK        -0.5047 
     32 CA         26.3585   22.5867   -0.8847 C.3       2 UNK         0.0288 
     33 CB         25.6660   23.0057   -2.2023 C.3       2 UNK        -0.2113 
     34 N          27.8046   22.8158   -0.9965 N.am      2 UNK        -0.4145 
     35 C          28.4559   23.9849   -1.1240 C.2       1 UNK         0.5006 
     36 O          27.9190   25.0974   -1.1278 O.2       1 UNK        -0.5103 
     37 C          28.3628   28.2592    0.9285 C.2       5 UNK         0.5055 
     38 O          28.7958   29.3211    1.3798 O.2       5 UNK        -0.5220 
     39 N          28.6616   27.8027   -0.2984 N.am      6 UNK        -0.4450 
     40 CA         29.4039   28.5606   -1.3139 C.3       6 UNK         0.0367 
     41 CB         29.3708   27.8022   -2.6501 C.3       6 UNK        -0.1929 
     42 C          30.8498   28.9334   -0.9317 C.2       6 UNK         0.5070 
     43 O          31.3840   29.8891   -1.4952 O.2       6 UNK        -0.5237 
     44 N          31.4549   28.2052    0.0185 N.am      7 UNK        -0.4739 
     45 CA         32.7675   28.5274    0.5900 C.3       7 UNK         0.0276 
     46 CB         33.3202   27.2995    1.3275 C.3       7 UNK        -0.1927 
     47 C          32.7430   29.7583    1.5190 C.2       7 UNK         0.5013 
     48 O          33.7909   30.3809    1.6981 O.2       7 UNK        -0.5193 
     49 N          31.5605   30.0883    2.0676 N.am      8 UNK        -0.4253 
     50 CA         31.2046   31.2839    2.8422 C.3       8 UNK         0.0242 
     51 CB         30.8196   32.4182    1.8676 C.3       8 UNK        -0.2000 
     52 C          32.2586   31.7020    3.8854 C.2       8 UNK         0.4948 
     53 O          32.3535   31.0753    4.9430 O.2       8 UNK        -0.5275 
     54 N          33.0536   32.7298    3.5521 N.am      9 UNK        -0.4246 
     55 CA         34.1285   33.3173    4.3592 C.3       9 UNK         0.0261 
     56 CB         34.7311   34.5057    3.5910 C.3       9 UNK        -0.1959 
     57 C          35.2384   32.3427    4.8008 C.2       9 UNK         0.5033 
     58 O          36.0045   32.6915    5.7003 O.2       9 UNK        -0.5390 
     59 N          35.2987   31.1427    4.2026 N.am      10 UNK        -0.4215 
     60 CA         36.1435   30.0279    4.6384 C.3       10 UNK         0.0240 
     61 CB         35.9778   28.8531    3.6631 C.3       10 UNK        -0.1982 
     62 C          35.8620   29.5539    6.0781 C.2       10 UNK         0.4970 
     63 O          36.7881   29.0574    6.7212 O.2       10 UNK        -0.4916 
     64 N          34.6206   29.7146    6.5626 N.am      11 UNK        -0.4279 
     65 CA         34.2349   29.3925    7.9465 C.3       11 UNK         0.1003 
     66 C          33.0652   30.2379    8.5254 C.2       11 UNK         0.5709 
     67 N          32.3366   31.0237    7.7414 N.am      11 UNK        -0.7358 
     68 O          32.8314   30.2051    9.7317 O.2       11 UNK        -0.4999 
     69 C69        34.1071   27.8602    8.2092 C.3       12 UNK        -0.0954 
     70 S70        32.5243   27.0566    7.7732 S.3       12 UNK        -0.2268 
     71 C71        32.2930   27.5259    6.0304 C.3       12 UNK         0.0203 
     72 H72        31.1779   22.1759   -5.3039 H         1 UNK         0.0888 
     73 H73        30.9544   21.0299   -3.9809 H         1 UNK         0.0888 
     74 H74        29.6024   21.4216   -5.0451 H         1 UNK         0.0888 
     75 H75        30.8024   22.0488   -2.0017 H         1 UNK         0.3017 
     76 H76        30.3339   24.8391   -1.6898 H         1 UNK         0.0873 
     77 H77        31.7894   23.4166   -0.1897 H         1 UNK         0.0745 
     78 H78        30.3554   22.6827    0.4787 H         1 UNK         0.0745 
     79 H79        29.7202   23.3712    2.7164 H         1 UNK         0.0705 
     80 H80        31.4523   23.5483    2.9295 H         1 UNK         0.0705 
     81 H81        32.3686   25.5619    4.1344 H         1 UNK         0.1334 
     82 H82        29.6391   27.8378    6.5318 H         1 UNK         0.1417 
     83 H83        28.1545   24.8376    3.8452 H         1 UNK         0.1562 
     84 H84        27.2941   27.6541    6.2169 H         1 UNK         0.0748 
     85 H85        26.9341   25.9472    6.3194 H         1 UNK         0.0748 
     86 H86        27.9518   28.3982    3.6483 H         1 UNK         0.0940 
     87 H87        26.4359   28.9388    3.0000 H         1 UNK         0.0940 
     88 H88        27.9516   26.4711    1.9717 H         1 UNK         0.0703 
     89 H89        26.1261   26.0018    0.8531 H         1 UNK         0.3081 
     90 H90        23.2230   27.7501   -0.0498 H         1 UNK         0.0719 
     91 H91        24.5170   28.3543   -2.1012 H         1 UNK         0.0809 
     92 H92        25.2778   26.7699   -2.1141 H         1 UNK         0.0809 
     93 H93        23.5402   26.9241   -2.3865 H         1 UNK         0.0809 
     94 H94        24.1940   25.1117   -0.6569 H         1 UNK         0.2990 
     95 H95        23.9202   23.6086    2.4069 H         1 UNK         0.0690 
     96 H96        22.1119   22.1172    1.5660 H         1 UNK         0.0788 
     97 H97        21.6389   23.3267    0.3707 H         1 UNK         0.0788 
     98 H98        21.4421   23.6533    2.0869 H         1 UNK         0.0788 
     99 H99        23.8953   22.5342   -0.2534 H         1 UNK         0.2993 
    100 H100       26.2323   21.5099   -0.7605 H         1 UNK         0.0949 
    101 H101       25.6796   24.0874   -2.3422 H         1 UNK         0.0767 
    102 H102       26.1610   22.5580   -3.0646 H         1 UNK         0.0767 
    103 H103       24.6252   22.6827   -2.2366 H         1 UNK         0.0767 
    104 H104       28.3683   21.9782   -0.9845 H         1 UNK         0.3013 
    105 H105       28.2960   26.8957   -0.5838 H         1 UNK         0.3121 
    106 H106       28.8672   29.5014   -1.4541 H         1 UNK         0.0774 
    107 H107       29.9246   26.8662   -2.5988 H         1 UNK         0.0815 
    108 H108       28.3495   27.5710   -2.9539 H         1 UNK         0.0815 
    109 H109       29.8184   28.3982   -3.4465 H         1 UNK         0.0815 
    110 H110       30.9580   27.4197    0.4176 H         1 UNK         0.2987 
    111 H111       33.4465   28.7582   -0.2341 H         1 UNK         0.0949 
    112 H112       33.3256   26.4180    0.6861 H         1 UNK         0.0806 
    113 H113       34.3497   27.4672    1.6425 H         1 UNK         0.0806 
    114 H114       32.7350   27.0676    2.2171 H         1 UNK         0.0806 
    115 H115       30.7633   29.5078    1.8274 H         1 UNK         0.3010 
    116 H116       30.3101   31.0228    3.4100 H         1 UNK         0.0829 
    117 H117       31.6249   32.6561    1.1714 H         1 UNK         0.0813 
    118 H118       30.5527   33.3312    2.4022 H         1 UNK         0.0813 
    119 H119       29.9512   32.1344    1.2720 H         1 UNK         0.0813 
    120 H120       32.9147   33.1388    2.6395 H         1 UNK         0.3038 
    121 H121       33.6677   33.6988    5.2728 H         1 UNK         0.0769 
    122 H122       33.9766   35.2608    3.3691 H         1 UNK         0.0811 
    123 H123       35.1798   34.1891    2.6484 H         1 UNK         0.0811 
    124 H124       35.5120   34.9955    4.1749 H         1 UNK         0.0811 
    125 H125       34.6608   30.9558    3.4333 H         1 UNK         0.3204 
    126 H126       37.1806   30.3674    4.5986 H         1 UNK         0.0748 
    127 H127       34.9570   28.4695    3.6788 H         1 UNK         0.0771 
    128 H128       36.2145   29.1463    2.6399 H         1 UNK         0.0771 
    129 H129       36.6412   28.0277    3.9261 H         1 UNK         0.0771 
    130 H130       33.9111   30.1459    5.9817 H         1 UNK         0.2980 
    131 H131       35.0785   29.7255    8.5551 H         1 UNK         0.0545 
    132 H132       32.4409   31.0467    6.7303 H         1 UNK         0.3459 
    133 H133       31.6011   31.5651    8.1661 H         1 UNK         0.3459 
    134 H134       34.9100   27.3157    7.7103 H         1 UNK         0.0616 
    135 H135       34.2609   27.6750    9.2736 H         1 UNK         0.0616 
    136 H136       33.2158   27.3376    5.4767 H         1 UNK         0.0634 
    137 H137       32.0932   28.5964    5.9623 H         1 UNK         0.0634 
@<TRIPOS>BOND
     1    1    2 1    
     2    1   72 1    
     3    1   73 1    
     4    1   74 1    
     5    2    3 2    
     6    2    4 am   BACKBONE|DICT|INTERRES
     7    4    5 1    
     8    4   75 1    
     9    5    6 1    
    10    5   35 1    
    11    5   76 1    
    12    6    7 1    
    13    6   77 1    
    14    6   78 1    
    15    7    8 1    
    16    8    9 1    
    17    8   79 1    
    18    8   80 1    
    19    9   10 ar   
    20    9   14 ar   
    21   10   11 ar   
    22   10   81 1    
    23   11   12 ar   
    24   11   71 1    
    25   12   13 ar   
    26   12   82 1    
    27   13   14 ar   
    28   13   15 1    
    29   14   83 1    
    30   15   16 1    
    31   15   84 1    
    32   15   85 1    
    33   16   17 1    
    34   17   18 1    
    35   17   86 1    
    36   17   87 1    
    37   18   19 1    
    38   18   37 1    
    39   18   88 1    
    40   19   20 am   BACKBONE|DICT|INTERRES
    41   19   89 1    
    42   20   21 2    
    43   20   22 1    
    44   22   23 1    
    45   22   24 1    
    46   22   90 1    
    47   23   91 1    
    48   23   92 1    
    49   23   93 1    
    50   24   25 am   BACKBONE|DICT|INTERRES
    51   24   94 1    
    52   25   26 2    
    53   25   27 1    
    54   27   28 1    
    55   27   29 1    
    56   27   95 1    
    57   28   96 1    
    58   28   97 1    
    59   28   98 1    
    60   29   30 am   BACKBONE|DICT|INTERRES
    61   29   99 1    
    62   30   31 2    
    63   30   32 1    
    64   32   33 1    
    65   32   34 1    
    66   32  100 1    
    67   33  101 1    
    68   33  102 1    
    69   33  103 1    
    70   34   35 am   BACKBONE|DICT|INTERRES
    71   34  104 1    
    72   35   36 2    
    73   37   38 2    
    74   37   39 am   BACKBONE|DICT|INTERRES
    75   39   40 1    
    76   39  105 1    
    77   40   41 1    
    78   40   42 1    
    79   40  106 1    
    80   41  107 1    
    81   41  108 1    
    82   41  109 1    
    83   42   43 2    
    84   42   44 am   BACKBONE|DICT|INTERRES
    85   44   45 1    
    86   44  110 1    
    87   45   46 1    
    88   45   47 1    
    89   45  111 1    
    90   46  112 1    
    91   46  113 1    
    92   46  114 1    
    93   47   48 2    
    94   47   49 am   BACKBONE|DICT|INTERRES
    95   49   50 1    
    96   49  115 1    
    97   50   51 1    
    98   50   52 1    
    99   50  116 1    
   100   51  117 1    
   101   51  118 1    
   102   51  119 1    
   103   52   53 2    
   104   52   54 am   BACKBONE|DICT|INTERRES
   105   54   55 1    
   106   54  120 1    
   107   55   56 1    
   108   55   57 1    
   109   55  121 1    
   110   56  122 1    
   111   56  123 1    
   112   56  124 1    
   113   57   58 2    
   114   57   59 am   BACKBONE|DICT|INTERRES
   115   59   60 1    
   116   59  125 1    
   117   60   61 1    
   118   60   62 1    
   119   60  126 1    
   120   61  127 1    
   121   61  128 1    
   122   61  129 1    
   123   62   63 2    
   124   62   64 am   BACKBONE|DICT|INTERRES
   125   64   65 1    
   126   64  130 1    
   127   65   66 1    
   128   65   69 1    
   129   65  131 1    
   130   66   67 am   BACKBONE|DICT|INTERRES
   131   66   68 2    
   132   67  132 1    
   133   67  133 1    
   134   69   70 1    
   135   69  134 1    
   136   69  135 1    
   137   70   71 1    
   138   71  136 1    
   139   71  137 1    
@<TRIPOS>SUBSTRUCTURE
     1 UNK         1 GROUP             0       ****    0 ROOT    
