@<TRIPOS>MOLECULE
3R136
137   139    1
SMALL
USER_CHARGES


@<TRIPOS>ATOM
      1 CA         27.9677   19.0705    1.0527 C.3       0 UNK        -0.1979 
      2 C          27.6694   19.7424   -0.2797 C.2       0 UNK         0.4864 
      3 O          26.8797   19.2188   -1.0676 O.2       0 UNK        -0.5359 
      4 N          28.3011   20.8935   -0.5382 N.am      1 UNK        -0.4318 
      5 CA         28.0732   21.7336   -1.7169 C.3       1 UNK         0.0824 
      6 C6         29.2808   22.6707   -1.9898 C.3       12 UNK        -0.0944 
      7 S7         29.7180   23.7487   -0.5794 S.3       12 UNK        -0.2672 
      8 C8         31.3607   23.1047   -0.1390 C.3       12 UNK         0.0333 
      9 C9         31.7801   23.6198    1.2262 C.ar      12 UNK        -0.0807 
     10 C10        32.5254   24.7966    1.3465 C.ar      12 UNK        -0.0894 
     11 C11        32.8677   25.2883    2.6103 C.ar      12 UNK        -0.0804 
     12 C12        32.4700   24.5919    3.7555 C.ar      12 UNK        -0.0824 
     13 C13        31.7026   23.4292    3.6429 C.ar      12 UNK        -0.0762 
     14 C14        31.3802   22.9357    2.3765 C.ar      12 UNK        -0.0782 
     15 C15        31.1506   22.7453    4.8826 C.3       12 UNK         0.0230 
     16 S16        29.3537   23.0197    5.0269 S.3       12 UNK        -0.2608 
     17 C17        29.2647   24.8167    5.3534 C.3       12 UNK        -0.0989 
     18 CA         29.0834   25.6945    4.0776 C.3       5 UNK         0.0716 
     19 N          27.9868   25.2671    3.2009 N.am      5 UNK        -0.4135 
     20 C          26.6806   25.2705    3.4972 C.2       4 UNK         0.5031 
     21 O          26.2216   25.6177    4.5873 O.2       4 UNK        -0.5229 
     22 CA         25.7319   24.8197    2.3670 C.3       4 UNK         0.0329 
     23 CB         24.2609   25.1990    2.6395 C.3       4 UNK        -0.2001 
     24 N          26.1294   25.2821    1.0286 N.am      4 UNK        -0.4303 
     25 C          26.3367   26.5517    0.6357 C.2       3 UNK         0.5044 
     26 O          26.3392   27.5115    1.4060 O.2       3 UNK        -0.5152 
     27 CA         26.6105   26.8160   -0.8587 C.3       3 UNK         0.0319 
     28 CB         28.0586   27.2847   -1.0650 C.3       3 UNK        -0.2001 
     29 N          26.3505   25.6636   -1.7234 N.am      3 UNK        -0.4354 
     30 C          25.1322   25.2042   -2.0472 C.2       2 UNK         0.4964 
     31 O          24.0845   25.7678   -1.7302 O.2       2 UNK        -0.5047 
     32 CA         25.0622   23.8794   -2.8341 C.3       2 UNK         0.0288 
     33 CB         24.7673   24.1522   -4.3184 C.3       2 UNK        -0.2113 
     34 N          26.2645   23.0409   -2.7304 N.am      2 UNK        -0.4145 
     35 C          26.7541   22.5264   -1.5922 C.2       1 UNK         0.5006 
     36 O          26.2404   22.7153   -0.4848 O.2       1 UNK        -0.5103 
     37 C          29.0389   27.2072    4.4038 C.2       5 UNK         0.5055 
     38 O          29.4531   27.6083    5.4929 O.2       5 UNK        -0.5220 
     39 N          28.5513   28.0258    3.4611 N.am      6 UNK        -0.4450 
     40 CA         28.4837   29.4827    3.5699 C.3       6 UNK         0.0367 
     41 CB         27.1169   29.8949    4.1498 C.3       6 UNK        -0.1929 
     42 C          28.7840   30.1271    2.2070 C.2       6 UNK         0.5070 
     43 O          28.0591   31.0220    1.7703 O.2       6 UNK        -0.5237 
     44 N          29.8512   29.6551    1.5465 N.am      7 UNK        -0.4739 
     45 CA         30.3065   30.1446    0.2382 C.3       7 UNK         0.0276 
     46 CB         31.2887   29.1249   -0.3633 C.3       7 UNK        -0.1927 
     47 C          30.9538   31.5416    0.2858 C.2       7 UNK         0.5013 
     48 O          31.0134   32.2150   -0.7437 O.2       7 UNK        -0.5193 
     49 N          31.4314   31.9440    1.4666 N.am      8 UNK        -0.4253 
     50 CA         32.0958   33.2067    1.7676 C.3       8 UNK         0.0242 
     51 CB         33.5343   33.1943    1.2126 C.3       8 UNK        -0.2000 
     52 C          32.1034   33.3716    3.2907 C.2       8 UNK         0.4948 
     53 O          31.8739   32.3922    4.0065 O.2       8 UNK        -0.5275 
     54 N          32.4184   34.5825    3.7687 N.am      9 UNK        -0.4246 
     55 CA         32.5134   34.9124    5.1977 C.3       9 UNK         0.0261 
     56 CB         32.7357   36.4249    5.3608 C.3       9 UNK        -0.1959 
     57 C          33.5999   34.1224    5.9535 C.2       9 UNK         0.5033 
     58 O          33.4181   33.8264    7.1349 O.2       9 UNK        -0.5390 
     59 N          34.6947   33.7809    5.2588 N.am      10 UNK        -0.4215 
     60 CA         35.7706   32.9266    5.7707 C.3       10 UNK         0.0240 
     61 CB         37.0388   33.1574    4.9323 C.3       10 UNK        -0.1982 
     62 C          35.4004   31.4310    5.7805 C.2       10 UNK         0.4970 
     63 O          35.9617   30.6806    6.5793 O.2       10 UNK        -0.4916 
     64 N          34.4853   31.0258    4.8913 N.am      11 UNK        -0.4279 
     65 CA         33.9427   29.6659    4.7936 C.3       11 UNK         0.1003 
     66 C          32.8253   29.4376    5.8508 C.2       11 UNK         0.5709 
     67 N          31.8540   30.3358    5.9590 N.am      11 UNK        -0.7358 
     68 O          32.8603   28.4578    6.5914 O.2       11 UNK        -0.4999 
     69 C69        33.5316   29.3613    3.3216 C.3       12 UNK        -0.0954 
     70 S70        32.4176   27.9445    3.0491 S.3       12 UNK        -0.2268 
     71 C71        33.6069   26.6070    2.7487 C.3       12 UNK         0.0203 
     72 H72        28.6836   19.6398    1.6456 H         1 UNK         0.0888 
     73 H73        27.0518   18.9693    1.6343 H         1 UNK         0.0888 
     74 H74        28.3794   18.0752    0.8877 H         1 UNK         0.0888 
     75 H75        28.9006   21.3022    0.1631 H         1 UNK         0.3017 
     76 H76        27.9667   21.0726   -2.5801 H         1 UNK         0.0873 
     77 H77        29.0950   23.3040   -2.8591 H         1 UNK         0.0745 
     78 H78        30.1473   22.0665   -2.2631 H         1 UNK         0.0745 
     79 H79        31.3431   22.0136   -0.1319 H         1 UNK         0.0705 
     80 H80        32.0840   23.4002   -0.9006 H         1 UNK         0.0705 
     81 H81        32.8125   25.3445    0.4592 H         1 UNK         0.1334 
     82 H82        32.7070   24.9909    4.7327 H         1 UNK         0.1417 
     83 H83        30.7753   22.0434    2.2901 H         1 UNK         0.1562 
     84 H84        31.6510   23.0986    5.7857 H         1 UNK         0.0748 
     85 H85        31.3441   21.6733    4.8221 H         1 UNK         0.0748 
     86 H86        30.1653   25.1139    5.8940 H         1 UNK         0.0940 
     87 H87        28.4375   24.9866    6.0447 H         1 UNK         0.0940 
     88 H88        29.9771   25.5805    3.4676 H         1 UNK         0.0703 
     89 H89        28.2609   24.9502    2.2820 H         1 UNK         0.3081 
     90 H90        25.7919   23.7305    2.3404 H         1 UNK         0.0719 
     91 H91        23.6063   24.8433    1.8438 H         1 UNK         0.0809 
     92 H92        24.1330   26.2790    2.7216 H         1 UNK         0.0809 
     93 H93        23.9066   24.7563    3.5712 H         1 UNK         0.0809 
     94 H94        26.1888   24.5477    0.3290 H         1 UNK         0.2990 
     95 H95        25.9471   27.6273   -1.1658 H         1 UNK         0.0690 
     96 H96        28.2554   27.5322   -2.1082 H         1 UNK         0.0788 
     97 H97        28.7805   26.5304   -0.7535 H         1 UNK         0.0788 
     98 H98        28.2542   28.1816   -0.4786 H         1 UNK         0.0788 
     99 H99        27.1568   25.1410   -2.0325 H         1 UNK         0.2993 
    100 H100       24.2293   23.3085   -2.4178 H         1 UNK         0.0949 
    101 H101       23.8605   24.7480   -4.4340 H         1 UNK         0.0767 
    102 H102       25.5800   24.6999   -4.7974 H         1 UNK         0.0767 
    103 H103       24.6139   23.2247   -4.8706 H         1 UNK         0.0767 
    104 H104       26.7481   22.8488   -3.5964 H         1 UNK         0.3013 
    105 H105       28.1503   27.6347    2.6159 H         1 UNK         0.3121 
    106 H106       29.2641   29.8376    4.2470 H         1 UNK         0.0774 
    107 H107       27.0491   30.9771    4.2665 H         1 UNK         0.0815 
    108 H108       26.2981   29.5803    3.5012 H         1 UNK         0.0815 
    109 H109       26.9542   29.4524    5.1326 H         1 UNK         0.0815 
    110 H110       30.4089   28.9309    1.9811 H         1 UNK         0.2987 
    111 H111       29.4387   30.2189   -0.4204 H         1 UNK         0.0949 
    112 H112       32.2074   29.0564    0.2202 H         1 UNK         0.0806 
    113 H113       30.8527   28.1276   -0.4176 H         1 UNK         0.0806 
    114 H114       31.5709   29.4098   -1.3777 H         1 UNK         0.0806 
    115 H115       31.2895   31.3575    2.2798 H         1 UNK         0.3010 
    116 H116       31.5256   34.0266    1.3260 H         1 UNK         0.0829 
    117 H117       33.5419   33.0793    0.1286 H         1 UNK         0.0813 
    118 H118       34.0549   34.1263    1.4352 H         1 UNK         0.0813 
    119 H119       34.1232   32.3793    1.6357 H         1 UNK         0.0813 
    120 H120       32.5950   35.3343    3.1170 H         1 UNK         0.3038 
    121 H121       31.5548   34.6585    5.6557 H         1 UNK         0.0769 
    122 H122       32.7860   36.7000    6.4155 H         1 UNK         0.0811 
    123 H123       31.9196   36.9967    4.9188 H         1 UNK         0.0811 
    124 H124       33.6666   36.7506    4.8949 H         1 UNK         0.0811 
    125 H125       34.7741   34.0982    4.3038 H         1 UNK         0.3204 
    126 H126       35.9864   33.2187    6.8009 H         1 UNK         0.0748 
    127 H127       37.8685   32.5559    5.3065 H         1 UNK         0.0771 
    128 H128       36.8881   32.8888    3.8858 H         1 UNK         0.0771 
    129 H129       37.3552   34.2001    4.9701 H         1 UNK         0.0771 
    130 H130       34.0078   31.7238    4.3413 H         1 UNK         0.2980 
    131 H131       34.7423   28.9638    5.0387 H         1 UNK         0.0545 
    132 H132       31.8221   31.1355    5.3314 H         1 UNK         0.3459 
    133 H133       31.1254   30.1930    6.6386 H         1 UNK         0.3459 
    134 H134       34.4252   29.2354    2.7085 H         1 UNK         0.0616 
    135 H135       33.0169   30.2233    2.9014 H         1 UNK         0.0616 
    136 H136       34.1834   26.8240    1.8481 H         1 UNK         0.0634 
    137 H137       34.3167   26.5549    3.5758 H         1 UNK         0.0634 
@<TRIPOS>BOND
     1    1    2 1    
     2    1   72 1    
     3    1   73 1    
     4    1   74 1    
     5    2    3 2    
     6    2    4 am   BACKBONE|DICT|INTERRES
     7    4    5 1    
     8    4   75 1    
     9    5    6 1    
    10    5   35 1    
    11    5   76 1    
    12    6    7 1    
    13    6   77 1    
    14    6   78 1    
    15    7    8 1    
    16    8    9 1    
    17    8   79 1    
    18    8   80 1    
    19    9   10 ar   
    20    9   14 ar   
    21   10   11 ar   
    22   10   81 1    
    23   11   12 ar   
    24   11   71 1    
    25   12   13 ar   
    26   12   82 1    
    27   13   14 ar   
    28   13   15 1    
    29   14   83 1    
    30   15   16 1    
    31   15   84 1    
    32   15   85 1    
    33   16   17 1    
    34   17   18 1    
    35   17   86 1    
    36   17   87 1    
    37   18   19 1    
    38   18   37 1    
    39   18   88 1    
    40   19   20 am   BACKBONE|DICT|INTERRES
    41   19   89 1    
    42   20   21 2    
    43   20   22 1    
    44   22   23 1    
    45   22   24 1    
    46   22   90 1    
    47   23   91 1    
    48   23   92 1    
    49   23   93 1    
    50   24   25 am   BACKBONE|DICT|INTERRES
    51   24   94 1    
    52   25   26 2    
    53   25   27 1    
    54   27   28 1    
    55   27   29 1    
    56   27   95 1    
    57   28   96 1    
    58   28   97 1    
    59   28   98 1    
    60   29   30 am   BACKBONE|DICT|INTERRES
    61   29   99 1    
    62   30   31 2    
    63   30   32 1    
    64   32   33 1    
    65   32   34 1    
    66   32  100 1    
    67   33  101 1    
    68   33  102 1    
    69   33  103 1    
    70   34   35 am   BACKBONE|DICT|INTERRES
    71   34  104 1    
    72   35   36 2    
    73   37   38 2    
    74   37   39 am   BACKBONE|DICT|INTERRES
    75   39   40 1    
    76   39  105 1    
    77   40   41 1    
    78   40   42 1    
    79   40  106 1    
    80   41  107 1    
    81   41  108 1    
    82   41  109 1    
    83   42   43 2    
    84   42   44 am   BACKBONE|DICT|INTERRES
    85   44   45 1    
    86   44  110 1    
    87   45   46 1    
    88   45   47 1    
    89   45  111 1    
    90   46  112 1    
    91   46  113 1    
    92   46  114 1    
    93   47   48 2    
    94   47   49 am   BACKBONE|DICT|INTERRES
    95   49   50 1    
    96   49  115 1    
    97   50   51 1    
    98   50   52 1    
    99   50  116 1    
   100   51  117 1    
   101   51  118 1    
   102   51  119 1    
   103   52   53 2    
   104   52   54 am   BACKBONE|DICT|INTERRES
   105   54   55 1    
   106   54  120 1    
   107   55   56 1    
   108   55   57 1    
   109   55  121 1    
   110   56  122 1    
   111   56  123 1    
   112   56  124 1    
   113   57   58 2    
   114   57   59 am   BACKBONE|DICT|INTERRES
   115   59   60 1    
   116   59  125 1    
   117   60   61 1    
   118   60   62 1    
   119   60  126 1    
   120   61  127 1    
   121   61  128 1    
   122   61  129 1    
   123   62   63 2    
   124   62   64 am   BACKBONE|DICT|INTERRES
   125   64   65 1    
   126   64  130 1    
   127   65   66 1    
   128   65   69 1    
   129   65  131 1    
   130   66   67 am   BACKBONE|DICT|INTERRES
   131   66   68 2    
   132   67  132 1    
   133   67  133 1    
   134   69   70 1    
   135   69  134 1    
   136   69  135 1    
   137   70   71 1    
   138   71  136 1    
   139   71  137 1    
@<TRIPOS>SUBSTRUCTURE
     1 UNK         1 GROUP             0       ****    0 ROOT    
