@<TRIPOS>MOLECULE
3R136
137   139    1
SMALL
USER_CHARGES


@<TRIPOS>ATOM
      1 CA         30.7999   21.7758    3.0636 C.3       0 UNK        -0.1979 
      2 C          31.0575   20.4218    2.4050 C.2       0 UNK         0.4864 
      3 O          31.8878   19.6698    2.9127 O.2       0 UNK        -0.5359 
      4 N          30.4007   20.0438    1.2960 N.am      1 UNK        -0.4318 
      5 CA         29.3655   20.7402    0.5166 C.3       1 UNK         0.0824 
      6 C6         29.9129   21.8761   -0.3914 C.3       12 UNK        -0.0944 
      7 S7         31.1557   21.2910   -1.5980 S.3       12 UNK        -0.2672 
      8 C8         32.7482   21.7568   -0.8306 C.3       12 UNK         0.0333 
      9 C9         32.7925   23.2074   -0.3650 C.ar      12 UNK        -0.0807 
     10 C10        33.1350   23.5040    0.9577 C.ar      12 UNK        -0.0894 
     11 C11        33.1063   24.8228    1.4179 C.ar      12 UNK        -0.0804 
     12 C12        32.7523   25.8523    0.5425 C.ar      12 UNK        -0.0824 
     13 C13        32.4007   25.5680   -0.7793 C.ar      12 UNK        -0.0762 
     14 C14        32.4423   24.2468   -1.2335 C.ar      12 UNK        -0.0782 
     15 C15        31.9252   26.6769   -1.7035 C.3       12 UNK         0.0230 
     16 S16        30.1410   26.9790   -1.4851 S.3       12 UNK        -0.2608 
     17 C17        30.1257   28.0396   -0.0001 C.3       12 UNK        -0.0989 
     18 CA         28.9074   28.9956   -0.0079 C.3       5 UNK         0.0716 
     19 N          27.6513   28.2827    0.2397 N.am      5 UNK        -0.4135 
     20 C          26.4281   28.7368   -0.0703 C.2       4 UNK         0.5031 
     21 O          26.2306   29.7825   -0.6928 O.2       4 UNK        -0.5229 
     22 CA         25.2160   27.9135    0.4074 C.3       4 UNK         0.0329 
     23 CB         24.6748   27.0452   -0.7399 C.3       4 UNK        -0.2001 
     24 N          25.4823   27.0579    1.5679 N.am      4 UNK        -0.4303 
     25 C          25.8851   27.4715    2.7788 C.2       3 UNK         0.5044 
     26 O          26.0407   28.6566    3.0718 O.2       3 UNK        -0.5152 
     27 CA         26.1730   26.3945    3.8465 C.3       3 UNK         0.0319 
     28 CB         25.2042   26.5418    5.0328 C.3       3 UNK        -0.2001 
     29 N          26.1170   25.0066    3.3692 N.am      3 UNK        -0.4354 
     30 C          26.9487   24.4403    2.4847 C.2       2 UNK         0.4964 
     31 O          27.8677   25.0379    1.9185 O.2       2 UNK        -0.5047 
     32 CA         26.6555   22.9750    2.1414 C.3       2 UNK         0.0288 
     33 CB         25.3624   22.8462    1.3124 C.3       2 UNK        -0.2113 
     34 N          27.7740   22.4220    1.3848 N.am      2 UNK        -0.4145 
     35 C          28.1520   21.1377    1.3872 C.2       1 UNK         0.5006 
     36 O          27.5804   20.2636    2.0428 O.2       1 UNK        -0.5103 
     37 C          29.0706   30.1769    0.9738 C.2       5 UNK         0.5055 
     38 O          29.9369   30.1526    1.8531 O.2       5 UNK        -0.5220 
     39 N          28.2511   31.2189    0.7805 N.am      6 UNK        -0.4450 
     40 CA         28.3079   32.4941    1.5021 C.3       6 UNK         0.0367 
     41 CB         27.1118   33.3666    1.0931 C.3       6 UNK        -0.1929 
     42 C          29.6305   33.2513    1.2852 C.2       6 UNK         0.5070 
     43 O          30.0784   33.9536    2.1898 O.2       6 UNK        -0.5237 
     44 N          30.2722   33.0405    0.1261 N.am      7 UNK        -0.4739 
     45 CA         31.6176   33.5311   -0.1959 C.3       7 UNK         0.0276 
     46 CB         31.9136   33.2510   -1.6780 C.3       7 UNK        -0.1927 
     47 C          32.7246   32.9322    0.6954 C.2       7 UNK         0.5013 
     48 O          33.7632   33.5692    0.8709 O.2       7 UNK        -0.5193 
     49 N          32.4730   31.7423    1.2597 N.am      8 UNK        -0.4253 
     50 CA         33.3171   31.0806    2.2567 C.3       8 UNK         0.0242 
     51 CB         33.3997   29.5800    1.9177 C.3       8 UNK        -0.2000 
     52 C          32.7778   31.2890    3.6852 C.2       8 UNK         0.4948 
     53 O          33.2372   30.6019    4.5980 O.2       8 UNK        -0.5275 
     54 N          31.7886   32.1822    3.8591 N.am      9 UNK        -0.4246 
     55 CA         31.0574   32.4718    5.0985 C.3       9 UNK         0.0261 
     56 CB         31.9800   33.1669    6.1231 C.3       9 UNK        -0.1959 
     57 C          30.3382   31.2366    5.6774 C.2       9 UNK         0.5033 
     58 O          30.2966   31.0775    6.8986 O.2       9 UNK        -0.5390 
     59 N          29.8067   30.3784    4.7889 N.am      10 UNK        -0.4215 
     60 CA         29.2153   29.0661    5.0824 C.3       10 UNK         0.0240 
     61 CB         27.9300   29.2017    5.9277 C.3       10 UNK        -0.1982 
     62 C          30.2456   28.0895    5.6859 C.2       10 UNK         0.4970 
     63 O          29.9304   27.3623    6.6294 O.2       10 UNK        -0.4916 
     64 N          31.4583   28.1065    5.1166 N.am      11 UNK        -0.4279 
     65 CA         32.6395   27.3357    5.5340 C.3       11 UNK         0.1003 
     66 C          33.2031   27.8168    6.9005 C.2       11 UNK         0.5709 
     67 N          33.4427   29.1128    7.0503 N.am      11 UNK        -0.7358 
     68 O          33.4330   27.0324    7.8189 O.2       11 UNK        -0.4999 
     69 C69        32.4590   25.7926    5.4364 C.3       12 UNK        -0.0954 
     70 S70        31.8468   25.2525    3.8080 S.3       12 UNK        -0.2268 
     71 C71        33.4005   25.1348    2.8739 C.3       12 UNK         0.0203 
     72 H72        30.6504   22.5752    2.3430 H         1 UNK         0.0888 
     73 H73        29.9262   21.7230    3.7122 H         1 UNK         0.0888 
     74 H74        31.6515   22.0606    3.6812 H         1 UNK         0.0888 
     75 H75        30.6152   19.1244    0.9374 H         1 UNK         0.3017 
     76 H76        28.9678   19.9785   -0.1563 H         1 UNK         0.0873 
     77 H77        29.1009   22.2969   -0.9875 H         1 UNK         0.0745 
     78 H78        30.3055   22.7077    0.1895 H         1 UNK         0.0745 
     79 H79        32.9416   21.0777    0.0010 H         1 UNK         0.0705 
     80 H80        33.5488   21.5925   -1.5528 H         1 UNK         0.0705 
     81 H81        33.3919   22.7059    1.6409 H         1 UNK         0.1334 
     82 H82        32.7096   26.8694    0.9042 H         1 UNK         0.1417 
     83 H83        32.1561   24.0194   -2.2515 H         1 UNK         0.1562 
     84 H84        32.1075   26.3993   -2.7428 H         1 UNK         0.0748 
     85 H85        32.4939   27.5921   -1.5321 H         1 UNK         0.0748 
     86 H86        31.0547   28.6121    0.0127 H         1 UNK         0.0940 
     87 H87        30.1343   27.4162    0.8966 H         1 UNK         0.0940 
     88 H88        28.8524   29.4402   -1.0044 H         1 UNK         0.0703 
     89 H89        27.7248   27.4118    0.7472 H         1 UNK         0.3081 
     90 H90        24.4394   28.6242    0.6973 H         1 UNK         0.0719 
     91 H91        25.4003   26.2937   -1.0545 H         1 UNK         0.0809 
     92 H92        23.7587   26.5295   -0.4512 H         1 UNK         0.0809 
     93 H93        24.4383   27.6551   -1.6132 H         1 UNK         0.0809 
     94 H94        25.3830   26.0640    1.4262 H         1 UNK         0.2990 
     95 H95        27.1874   26.5760    4.2072 H         1 UNK         0.0690 
     96 H96        25.4781   25.8787    5.8537 H         1 UNK         0.0788 
     97 H97        24.1771   26.3154    4.7442 H         1 UNK         0.0788 
     98 H98        25.2104   27.5589    5.4273 H         1 UNK         0.0788 
     99 H99        25.3792   24.4382    3.7610 H         1 UNK         0.2993 
    100 H100       26.5467   22.4284    3.0812 H         1 UNK         0.0949 
    101 H101       24.4988   23.2334    1.8543 H         1 UNK         0.0767 
    102 H102       25.4319   23.3929    0.3709 H         1 UNK         0.0767 
    103 H103       25.1473   21.8039    1.0754 H         1 UNK         0.0767 
    104 H104       28.3215   23.1162    0.8913 H         1 UNK         0.3013 
    105 H105       27.5189   31.1110    0.0842 H         1 UNK         0.3121 
    106 H106       28.2252   32.2754    2.5689 H         1 UNK         0.0774 
    107 H107       27.1157   34.3130    1.6360 H         1 UNK         0.0815 
    108 H108       27.1272   33.6011    0.0280 H         1 UNK         0.0815 
    109 H109       26.1661   32.8715    1.3146 H         1 UNK         0.0815 
    110 H110       29.8206   32.4633   -0.5686 H         1 UNK         0.2987 
    111 H111       31.6258   34.6122   -0.0401 H         1 UNK         0.0949 
    112 H112       31.9015   32.1829   -1.8987 H         1 UNK         0.0806 
    113 H113       31.1862   33.7381   -2.3278 H         1 UNK         0.0806 
    114 H114       32.8980   33.6298   -1.9574 H         1 UNK         0.0806 
    115 H115       31.5744   31.3066    1.0917 H         1 UNK         0.3010 
    116 H116       34.3275   31.4934    2.2291 H         1 UNK         0.0829 
    117 H117       33.7417   29.4217    0.8948 H         1 UNK         0.0813 
    118 H118       34.1044   29.0679    2.5743 H         1 UNK         0.0813 
    119 H119       32.4342   29.0867    2.0310 H         1 UNK         0.0813 
    120 H120       31.4711   32.7104    3.0536 H         1 UNK         0.3038 
    121 H121       30.2709   33.1793    4.8325 H         1 UNK         0.0769 
    122 H122       32.7605   32.4969    6.4852 H         1 UNK         0.0811 
    123 H123       31.4148   33.5059    6.9920 H         1 UNK         0.0811 
    124 H124       32.4632   34.0430    5.6910 H         1 UNK         0.0811 
    125 H125       29.9132   30.5802    3.7982 H         1 UNK         0.3204 
    126 H126       28.9269   28.6410    4.1195 H         1 UNK         0.0748 
    127 H127       27.4565   28.2313    6.0735 H         1 UNK         0.0771 
    128 H128       28.1299   29.6098    6.9184 H         1 UNK         0.0771 
    129 H129       27.2012   29.8469    5.4370 H         1 UNK         0.0771 
    130 H130       31.6328   28.7901    4.3958 H         1 UNK         0.2980 
    131 H131       33.4159   27.5977    4.8147 H         1 UNK         0.0545 
    132 H132       33.3003   29.7469    6.2675 H         1 UNK         0.3459 
    133 H133       33.8049   29.4569    7.9245 H         1 UNK         0.3459 
    134 H134       33.4020   25.2833    5.6425 H         1 UNK         0.0616 
    135 H135       31.7556   25.4404    6.1921 H         1 UNK         0.0616 
    136 H136       34.0346   24.3636    3.3141 H         1 UNK         0.0634 
    137 H137       33.9488   26.0750    2.9481 H         1 UNK         0.0634 
@<TRIPOS>BOND
     1    1    2 1    
     2    1   72 1    
     3    1   73 1    
     4    1   74 1    
     5    2    3 2    
     6    2    4 am   BACKBONE|DICT|INTERRES
     7    4    5 1    
     8    4   75 1    
     9    5    6 1    
    10    5   35 1    
    11    5   76 1    
    12    6    7 1    
    13    6   77 1    
    14    6   78 1    
    15    7    8 1    
    16    8    9 1    
    17    8   79 1    
    18    8   80 1    
    19    9   10 ar   
    20    9   14 ar   
    21   10   11 ar   
    22   10   81 1    
    23   11   12 ar   
    24   11   71 1    
    25   12   13 ar   
    26   12   82 1    
    27   13   14 ar   
    28   13   15 1    
    29   14   83 1    
    30   15   16 1    
    31   15   84 1    
    32   15   85 1    
    33   16   17 1    
    34   17   18 1    
    35   17   86 1    
    36   17   87 1    
    37   18   19 1    
    38   18   37 1    
    39   18   88 1    
    40   19   20 am   BACKBONE|DICT|INTERRES
    41   19   89 1    
    42   20   21 2    
    43   20   22 1    
    44   22   23 1    
    45   22   24 1    
    46   22   90 1    
    47   23   91 1    
    48   23   92 1    
    49   23   93 1    
    50   24   25 am   BACKBONE|DICT|INTERRES
    51   24   94 1    
    52   25   26 2    
    53   25   27 1    
    54   27   28 1    
    55   27   29 1    
    56   27   95 1    
    57   28   96 1    
    58   28   97 1    
    59   28   98 1    
    60   29   30 am   BACKBONE|DICT|INTERRES
    61   29   99 1    
    62   30   31 2    
    63   30   32 1    
    64   32   33 1    
    65   32   34 1    
    66   32  100 1    
    67   33  101 1    
    68   33  102 1    
    69   33  103 1    
    70   34   35 am   BACKBONE|DICT|INTERRES
    71   34  104 1    
    72   35   36 2    
    73   37   38 2    
    74   37   39 am   BACKBONE|DICT|INTERRES
    75   39   40 1    
    76   39  105 1    
    77   40   41 1    
    78   40   42 1    
    79   40  106 1    
    80   41  107 1    
    81   41  108 1    
    82   41  109 1    
    83   42   43 2    
    84   42   44 am   BACKBONE|DICT|INTERRES
    85   44   45 1    
    86   44  110 1    
    87   45   46 1    
    88   45   47 1    
    89   45  111 1    
    90   46  112 1    
    91   46  113 1    
    92   46  114 1    
    93   47   48 2    
    94   47   49 am   BACKBONE|DICT|INTERRES
    95   49   50 1    
    96   49  115 1    
    97   50   51 1    
    98   50   52 1    
    99   50  116 1    
   100   51  117 1    
   101   51  118 1    
   102   51  119 1    
   103   52   53 2    
   104   52   54 am   BACKBONE|DICT|INTERRES
   105   54   55 1    
   106   54  120 1    
   107   55   56 1    
   108   55   57 1    
   109   55  121 1    
   110   56  122 1    
   111   56  123 1    
   112   56  124 1    
   113   57   58 2    
   114   57   59 am   BACKBONE|DICT|INTERRES
   115   59   60 1    
   116   59  125 1    
   117   60   61 1    
   118   60   62 1    
   119   60  126 1    
   120   61  127 1    
   121   61  128 1    
   122   61  129 1    
   123   62   63 2    
   124   62   64 am   BACKBONE|DICT|INTERRES
   125   64   65 1    
   126   64  130 1    
   127   65   66 1    
   128   65   69 1    
   129   65  131 1    
   130   66   67 am   BACKBONE|DICT|INTERRES
   131   66   68 2    
   132   67  132 1    
   133   67  133 1    
   134   69   70 1    
   135   69  134 1    
   136   69  135 1    
   137   70   71 1    
   138   71  136 1    
   139   71  137 1    
@<TRIPOS>SUBSTRUCTURE
     1 UNK         1 GROUP             0       ****    0 ROOT    
