@<TRIPOS>MOLECULE
3R136
137   139    1
SMALL
USER_CHARGES


@<TRIPOS>ATOM
      1 CA         26.0554   29.6188    4.6553 C.3       0 UNK        -0.1979 
      2 C          25.8372   28.1583    4.2935 C.2       0 UNK         0.4864 
      3 O          24.7341   27.6364    4.4697 O.2       0 UNK        -0.5359 
      4 N          26.8787   27.4909    3.7808 N.am      1 UNK        -0.4318 
      5 CA         26.8564   26.0904    3.3376 C.3       1 UNK         0.0824 
      6 C6         28.2628   25.4336    3.3857 C.3       12 UNK        -0.0944 
      7 S7         29.5549   26.3815    2.5217 S.3       12 UNK        -0.2672 
      8 C8         30.9704   25.2459    2.6191 C.3       12 UNK         0.0333 
      9 C9         32.1012   25.7774    1.7566 C.ar      12 UNK        -0.0807 
     10 C10        33.2741   26.2814    2.3242 C.ar      12 UNK        -0.0894 
     11 C11        34.2580   26.8609    1.5144 C.ar      12 UNK        -0.0804 
     12 C12        34.0637   26.9301    0.1287 C.ar      12 UNK        -0.0824 
     13 C13        32.8948   26.4186   -0.4447 C.ar      12 UNK        -0.0762 
     14 C14        31.9335   25.8277    0.3733 C.ar      12 UNK        -0.0782 
     15 C15        32.6119   26.5538   -1.9312 C.3       12 UNK         0.0230 
     16 S16        31.4616   27.9379   -2.2005 S.3       12 UNK        -0.2608 
     17 C17        30.3491   27.3305   -3.5166 C.3       12 UNK        -0.0989 
     18 CA         28.9011   26.9905   -3.0587 C.3       5 UNK         0.0716 
     19 N          28.8327   25.7099   -2.3413 N.am      5 UNK        -0.4135 
     20 C          27.7630   24.9007   -2.3281 C.2       4 UNK         0.5031 
     21 O          26.7083   25.1737   -2.9042 O.2       4 UNK        -0.5229 
     22 CA         27.8760   23.5656   -1.5667 C.3       4 UNK         0.0329 
     23 CB         29.0889   23.4746   -0.6198 C.3       4 UNK        -0.2001 
     24 N          26.6615   23.3737   -0.7802 N.am      4 UNK        -0.4303 
     25 C          25.7099   22.4578   -1.0039 C.2       3 UNK         0.5044 
     26 O          25.7794   21.5943   -1.8800 O.2       3 UNK        -0.5152 
     27 CA         24.4674   22.4929   -0.0889 C.3       3 UNK         0.0319 
     28 CB         24.5533   21.3852    0.9740 C.3       3 UNK        -0.2001 
     29 N          24.2769   23.7815    0.5832 N.am      3 UNK        -0.4354 
     30 C          23.8860   24.9104   -0.0254 C.2       2 UNK         0.4964 
     31 O          23.5024   24.9559   -1.1942 O.2       2 UNK        -0.5047 
     32 CA         23.9455   26.2153    0.7926 C.3       2 UNK         0.0288 
     33 CB         22.5363   26.6403    1.2356 C.3       2 UNK        -0.2113 
     34 N          24.8239   26.1844    1.9697 N.am      2 UNK        -0.4145 
     35 C          26.1448   25.9546    1.9715 C.2       1 UNK         0.5006 
     36 O          26.7804   25.6771    0.9517 O.2       1 UNK        -0.5103 
     37 C          28.1935   28.1641   -2.3314 C.2       5 UNK         0.5055 
     38 O          28.1870   29.2699   -2.8756 O.2       5 UNK        -0.5220 
     39 N          27.6157   27.9226   -1.1408 N.am      6 UNK        -0.4450 
     40 CA         26.9364   28.8984   -0.2750 C.3       6 UNK         0.0367 
     41 CB         25.7044   29.5190   -0.9697 C.3       6 UNK        -0.1929 
     42 C          27.8908   29.9468    0.3283 C.2       6 UNK         0.5070 
     43 O          27.5056   31.1045    0.5038 O.2       6 UNK        -0.5237 
     44 N          29.1145   29.5165    0.6580 N.am      7 UNK        -0.4739 
     45 CA         30.1007   30.3031    1.3991 C.3       7 UNK         0.0276 
     46 CB         31.4964   29.7036    1.1549 C.3       7 UNK        -0.1927 
     47 C          29.7873   30.3247    2.9051 C.2       7 UNK         0.5013 
     48 O          28.9940   29.5141    3.3921 O.2       7 UNK        -0.5193 
     49 N          30.4512   31.2354    3.6266 N.am      8 UNK        -0.4253 
     50 CA         30.5019   31.2321    5.0885 C.3       8 UNK         0.0242 
     51 CB         30.9811   32.6080    5.5804 C.3       8 UNK        -0.2000 
     52 C          31.4501   30.1257    5.5798 C.2       8 UNK         0.4948 
     53 O          32.4337   29.8206    4.9040 O.2       8 UNK        -0.5275 
     54 N          31.1746   29.5816    6.7718 N.am      9 UNK        -0.4246 
     55 CA         31.9339   28.4831    7.3853 C.3       9 UNK         0.0261 
     56 CB         31.1650   27.9721    8.6153 C.3       9 UNK        -0.1959 
     57 C          33.3903   28.8234    7.7648 C.2       9 UNK         0.5033 
     58 O          34.1650   27.9049    8.0360 O.2       9 UNK        -0.5390 
     59 N          33.7422   30.1174    7.7793 N.am      10 UNK        -0.4215 
     60 CA         35.0564   30.6573    8.1419 C.3       10 UNK         0.0240 
     61 CB         35.0099   32.1917    8.0546 C.3       10 UNK        -0.1982 
     62 C          36.2383   30.1096    7.3192 C.2       10 UNK         0.4970 
     63 O          37.3412   30.0203    7.8606 O.2       10 UNK        -0.4916 
     64 N          35.9998   29.7456    6.0514 N.am      11 UNK        -0.4279 
     65 CA         36.9875   29.0742    5.1901 C.3       11 UNK         0.1003 
     66 C          37.1424   27.5451    5.4472 C.2       11 UNK         0.5709 
     67 N          36.3586   26.9212    6.3197 N.am      11 UNK        -0.7358 
     68 O          38.0103   26.9107    4.8520 O.2       11 UNK        -0.4999 
     69 C69        36.7932   29.4196    3.6881 C.3       12 UNK        -0.0954 
     70 S70        35.1529   28.9939    3.0148 S.3       12 UNK        -0.2268 
     71 C71        35.5145   27.4357    2.1483 C.3       12 UNK         0.0203 
     72 H72        26.9616   29.7373    5.2489 H         1 UNK         0.0888 
     73 H73        26.1540   30.2211    3.7523 H         1 UNK         0.0888 
     74 H74        25.2176   30.0045    5.2357 H         1 UNK         0.0888 
     75 H75        27.7525   27.9900    3.6209 H         1 UNK         0.3017 
     76 H76        26.2432   25.5302    4.0471 H         1 UNK         0.0873 
     77 H77        28.2284   24.4212    2.9784 H         1 UNK         0.0745 
     78 H78        28.5744   25.3257    4.4257 H         1 UNK         0.0745 
     79 H79        30.6776   24.2548    2.2696 H         1 UNK         0.0705 
     80 H80        31.2823   25.1404    3.6593 H         1 UNK         0.0705 
     81 H81        33.4086   26.2599    3.3973 H         1 UNK         0.1334 
     82 H82        34.8073   27.4030   -0.4981 H         1 UNK         0.1417 
     83 H83        31.0156   25.4666   -0.0605 H         1 UNK         0.1562 
     84 H84        32.1897   25.6213   -2.3081 H         1 UNK         0.0748 
     85 H85        33.5315   26.7301   -2.4912 H         1 UNK         0.0748 
     86 H86        30.7979   26.4724   -4.0191 H         1 UNK         0.0940 
     87 H87        30.3078   28.1104   -4.2794 H         1 UNK         0.0940 
     88 H88        28.3306   26.8589   -3.9811 H         1 UNK         0.0703 
     89 H89        29.6638   25.4291   -1.8463 H         1 UNK         0.3081 
     90 H90        27.9726   22.7810   -2.3197 H         1 UNK         0.0719 
     91 H91        30.0317   23.5455   -1.1630 H         1 UNK         0.0809 
     92 H92        29.0632   24.2542    0.1425 H         1 UNK         0.0809 
     93 H93        29.1013   22.5165   -0.0997 H         1 UNK         0.0809 
     94 H94        26.4952   24.0878   -0.0768 H         1 UNK         0.2990 
     95 H95        23.5936   22.3000   -0.7151 H         1 UNK         0.0690 
     96 H96        23.6526   21.3518    1.5872 H         1 UNK         0.0788 
     97 H97        25.4081   21.5264    1.6368 H         1 UNK         0.0788 
     98 H98        24.6617   20.4048    0.5075 H         1 UNK         0.0788 
     99 H99        24.5475   23.8330    1.5541 H         1 UNK         0.2993 
    100 H100       24.3370   26.9816    0.1217 H         1 UNK         0.0949 
    101 H101       21.8609   26.7118    0.3817 H         1 UNK         0.0767 
    102 H102       22.1027   25.9260    1.9367 H         1 UNK         0.0767 
    103 H103       22.5501   27.6183    1.7176 H         1 UNK         0.0767 
    104 H104       24.4128   26.4797    2.8507 H         1 UNK         0.3013 
    105 H105       27.6567   26.9809   -0.7707 H         1 UNK         0.3121 
    106 H106       26.5629   28.3378    0.5790 H         1 UNK         0.0774 
    107 H107       25.0646   28.7539   -1.4085 H         1 UNK         0.0815 
    108 H108       25.0987   30.0795   -0.2567 H         1 UNK         0.0815 
    109 H109       25.9901   30.2110   -1.7622 H         1 UNK         0.0815 
    110 H110       29.3330   28.5395    0.5270 H         1 UNK         0.2987 
    111 H111       30.0873   31.3307    1.0290 H         1 UNK         0.0949 
    112 H112       31.7681   29.7447    0.1011 H         1 UNK         0.0806 
    113 H113       32.2684   30.2440    1.7042 H         1 UNK         0.0806 
    114 H114       31.5479   28.6627    1.4753 H         1 UNK         0.0806 
    115 H115       31.1185   31.8304    3.1582 H         1 UNK         0.3010 
    116 H116       29.4986   31.0454    5.4782 H         1 UNK         0.0829 
    117 H117       31.9908   32.8331    5.2337 H         1 UNK         0.0813 
    118 H118       30.3223   33.4042    5.2329 H         1 UNK         0.0813 
    119 H119       30.9927   32.6534    6.6701 H         1 UNK         0.0813 
    120 H120       30.3619   29.9038    7.2784 H         1 UNK         0.3038 
    121 H121       31.9828   27.6723    6.6550 H         1 UNK         0.0769 
    122 H122       31.6802   27.1280    9.0765 H         1 UNK         0.0811 
    123 H123       30.1662   27.6283    8.3458 H         1 UNK         0.0811 
    124 H124       31.0621   28.7457    9.3773 H         1 UNK         0.0811 
    125 H125       33.0338   30.7903    7.5278 H         1 UNK         0.3204 
    126 H126       35.2376   30.3807    9.1825 H         1 UNK         0.0748 
    127 H127       35.9671   32.6292    8.3423 H         1 UNK         0.0771 
    128 H128       34.7874   32.5316    7.0420 H         1 UNK         0.0771 
    129 H129       34.2544   32.6061    8.7226 H         1 UNK         0.0771 
    130 H130       35.0640   29.8250    5.6765 H         1 UNK         0.2980 
    131 H131       37.9650   29.4843    5.4509 H         1 UNK         0.0545 
    132 H132       36.4887   25.9342    6.4712 H         1 UNK         0.3459 
    133 H133       35.6445   27.4167    6.8440 H         1 UNK         0.3459 
    134 H134       36.9254   30.4938    3.5520 H         1 UNK         0.0616 
    135 H135       37.5715   28.9563    3.0791 H         1 UNK         0.0616 
    136 H136       36.2819   27.6119    1.3930 H         1 UNK         0.0634 
    137 H137       35.9274   26.7112    2.8510 H         1 UNK         0.0634 
@<TRIPOS>BOND
     1    1    2 1    
     2    1   72 1    
     3    1   73 1    
     4    1   74 1    
     5    2    3 2    
     6    2    4 am   BACKBONE|DICT|INTERRES
     7    4    5 1    
     8    4   75 1    
     9    5    6 1    
    10    5   35 1    
    11    5   76 1    
    12    6    7 1    
    13    6   77 1    
    14    6   78 1    
    15    7    8 1    
    16    8    9 1    
    17    8   79 1    
    18    8   80 1    
    19    9   10 ar   
    20    9   14 ar   
    21   10   11 ar   
    22   10   81 1    
    23   11   12 ar   
    24   11   71 1    
    25   12   13 ar   
    26   12   82 1    
    27   13   14 ar   
    28   13   15 1    
    29   14   83 1    
    30   15   16 1    
    31   15   84 1    
    32   15   85 1    
    33   16   17 1    
    34   17   18 1    
    35   17   86 1    
    36   17   87 1    
    37   18   19 1    
    38   18   37 1    
    39   18   88 1    
    40   19   20 am   BACKBONE|DICT|INTERRES
    41   19   89 1    
    42   20   21 2    
    43   20   22 1    
    44   22   23 1    
    45   22   24 1    
    46   22   90 1    
    47   23   91 1    
    48   23   92 1    
    49   23   93 1    
    50   24   25 am   BACKBONE|DICT|INTERRES
    51   24   94 1    
    52   25   26 2    
    53   25   27 1    
    54   27   28 1    
    55   27   29 1    
    56   27   95 1    
    57   28   96 1    
    58   28   97 1    
    59   28   98 1    
    60   29   30 am   BACKBONE|DICT|INTERRES
    61   29   99 1    
    62   30   31 2    
    63   30   32 1    
    64   32   33 1    
    65   32   34 1    
    66   32  100 1    
    67   33  101 1    
    68   33  102 1    
    69   33  103 1    
    70   34   35 am   BACKBONE|DICT|INTERRES
    71   34  104 1    
    72   35   36 2    
    73   37   38 2    
    74   37   39 am   BACKBONE|DICT|INTERRES
    75   39   40 1    
    76   39  105 1    
    77   40   41 1    
    78   40   42 1    
    79   40  106 1    
    80   41  107 1    
    81   41  108 1    
    82   41  109 1    
    83   42   43 2    
    84   42   44 am   BACKBONE|DICT|INTERRES
    85   44   45 1    
    86   44  110 1    
    87   45   46 1    
    88   45   47 1    
    89   45  111 1    
    90   46  112 1    
    91   46  113 1    
    92   46  114 1    
    93   47   48 2    
    94   47   49 am   BACKBONE|DICT|INTERRES
    95   49   50 1    
    96   49  115 1    
    97   50   51 1    
    98   50   52 1    
    99   50  116 1    
   100   51  117 1    
   101   51  118 1    
   102   51  119 1    
   103   52   53 2    
   104   52   54 am   BACKBONE|DICT|INTERRES
   105   54   55 1    
   106   54  120 1    
   107   55   56 1    
   108   55   57 1    
   109   55  121 1    
   110   56  122 1    
   111   56  123 1    
   112   56  124 1    
   113   57   58 2    
   114   57   59 am   BACKBONE|DICT|INTERRES
   115   59   60 1    
   116   59  125 1    
   117   60   61 1    
   118   60   62 1    
   119   60  126 1    
   120   61  127 1    
   121   61  128 1    
   122   61  129 1    
   123   62   63 2    
   124   62   64 am   BACKBONE|DICT|INTERRES
   125   64   65 1    
   126   64  130 1    
   127   65   66 1    
   128   65   69 1    
   129   65  131 1    
   130   66   67 am   BACKBONE|DICT|INTERRES
   131   66   68 2    
   132   67  132 1    
   133   67  133 1    
   134   69   70 1    
   135   69  134 1    
   136   69  135 1    
   137   70   71 1    
   138   71  136 1    
   139   71  137 1    
@<TRIPOS>SUBSTRUCTURE
     1 UNK         1 GROUP             0       ****    0 ROOT    
