@<TRIPOS>MOLECULE
3R136
137   139    1
SMALL
USER_CHARGES


@<TRIPOS>ATOM
      1 CA         31.1176   23.0209   -4.8350 C.3       0 UNK        -0.1979 
      2 C          30.1886   23.9080   -4.0201 C.2       0 UNK         0.4864 
      3 O          29.5597   24.8124   -4.5736 O.2       0 UNK        -0.5359 
      4 N          30.0875   23.6565   -2.7087 N.am      1 UNK        -0.4318 
      5 CA         29.2392   24.3829   -1.7578 C.3       1 UNK         0.0824 
      6 C6         29.7770   24.2798   -0.3043 C.3       12 UNK        -0.0944 
      7 S7         30.1132   22.5757    0.2700 S.3       12 UNK        -0.2672 
      8 C8         31.7925   22.7380    0.9536 C.3       12 UNK         0.0333 
      9 C9         31.8113   23.5696    2.2294 C.ar      12 UNK        -0.0807 
     10 C10        32.3664   24.8533    2.2327 C.ar      12 UNK        -0.0894 
     11 C11        32.4157   25.6090    3.4094 C.ar      12 UNK        -0.0804 
     12 C12        31.9037   25.0598    4.5920 C.ar      12 UNK        -0.0824 
     13 C13        31.3237   23.7884    4.5968 C.ar      12 UNK        -0.0762 
     14 C14        31.2890   23.0444    3.4145 C.ar      12 UNK        -0.0782 
     15 C15        30.7388   23.2119    5.8779 C.3       12 UNK         0.0230 
     16 S16        28.9173   23.2375    5.8593 S.3       12 UNK        -0.2608 
     17 C17        28.5430   25.0111    6.0920 C.3       12 UNK        -0.0989 
     18 CA         28.2733   25.7640    4.7631 C.3       5 UNK         0.0716 
     19 N          27.2496   25.1022    3.9504 N.am      5 UNK        -0.4135 
     20 C          26.9874   25.3813    2.6681 C.2       4 UNK         0.5031 
     21 O          27.6013   26.2307    2.0178 O.2       4 UNK        -0.5229 
     22 CA         25.9063   24.5181    1.9873 C.3       4 UNK         0.0329 
     23 CB         24.7281   24.1469    2.9178 C.3       4 UNK        -0.2001 
     24 N          25.4340   25.1017    0.7261 N.am      4 UNK        -0.4303 
     25 C          24.6920   26.2078    0.5524 C.2       3 UNK         0.5044 
     26 O          24.2251   26.8705    1.4799 O.2       3 UNK        -0.5152 
     27 CA         24.4073   26.6636   -0.8970 C.3       3 UNK         0.0319 
     28 CB         24.7221   28.1574   -1.0918 C.3       3 UNK        -0.2001 
     29 N          25.1488   25.8998   -1.9039 N.am      3 UNK        -0.4354 
     30 C          24.7423   24.7545   -2.4685 C.2       2 UNK         0.4964 
     31 O          23.6435   24.2394   -2.2619 O.2       2 UNK        -0.5047 
     32 CA         25.7486   24.0453   -3.3965 C.3       2 UNK         0.0288 
     33 CB         25.4974   24.4343   -4.8622 C.3       2 UNK        -0.2113 
     34 N          27.1564   24.3028   -3.0633 N.am      2 UNK        -0.4145 
     35 C          27.7493   23.9920   -1.9014 C.2       1 UNK         0.5006 
     36 O          27.1537   23.4368   -0.9770 O.2       1 UNK        -0.5103 
     37 C          27.9108   27.2390    5.0393 C.2       5 UNK         0.5055 
     38 O          26.7282   27.5871    5.0809 O.2       5 UNK        -0.5220 
     39 N          28.9475   28.0619    5.2508 N.am      6 UNK        -0.4450 
     40 CA         28.9124   29.5149    5.4777 C.3       6 UNK         0.0367 
     41 CB         28.0727   29.8886    6.7177 C.3       6 UNK        -0.1929 
     42 C          28.5412   30.3332    4.2245 C.2       6 UNK         0.5070 
     43 O          28.1646   31.4993    4.3475 O.2       6 UNK        -0.5237 
     44 N          28.6784   29.7263    3.0380 N.am      7 UNK        -0.4739 
     45 CA         28.4104   30.3523    1.7409 C.3       7 UNK         0.0276 
     46 CB         27.9432   29.2647    0.7607 C.3       7 UNK        -0.1927 
     47 C          29.6197   31.1089    1.1606 C.2       7 UNK         0.5013 
     48 O          29.4529   31.8126    0.1630 O.2       7 UNK        -0.5193 
     49 N          30.8059   30.9458    1.7591 N.am      8 UNK        -0.4253 
     50 CA         32.0621   31.5519    1.3229 C.3       8 UNK         0.0242 
     51 CB         32.9175   30.4774    0.6290 C.3       8 UNK        -0.2000 
     52 C          32.8034   32.1202    2.5352 C.2       8 UNK         0.4948 
     53 O          32.5860   31.6597    3.6579 O.2       8 UNK        -0.5275 
     54 N          33.7201   33.0654    2.2858 N.am      9 UNK        -0.4246 
     55 CA         34.5519   33.7327    3.2991 C.3       9 UNK         0.0261 
     56 CB         35.3774   34.8396    2.6227 C.3       9 UNK        -0.1959 
     57 C          35.4719   32.7925    4.1049 C.2       9 UNK         0.5033 
     58 O          35.9054   33.1636    5.1962 O.2       9 UNK        -0.5390 
     59 N          35.7334   31.5919    3.5705 N.am      10 UNK        -0.4215 
     60 CA         36.4472   30.5017    4.2368 C.3       10 UNK         0.0240 
     61 CB         36.8000   29.4313    3.1900 C.3       10 UNK        -0.1982 
     62 C          35.6684   29.8637    5.4053 C.2       10 UNK         0.4970 
     63 O          36.2920   29.1850    6.2227 O.2       10 UNK        -0.4916 
     64 N          34.3455   30.0651    5.4618 N.am      11 UNK        -0.4279 
     65 CA         33.4452   29.4746    6.4633 C.3       11 UNK         0.1003 
     66 C          32.3986   30.4635    7.0445 C.2       11 UNK         0.5709 
     67 N          32.0648   31.5612    6.3792 N.am      11 UNK        -0.7358 
     68 O          31.8915   30.2382    8.1405 O.2       11 UNK        -0.4999 
     69 C69        32.8010   28.1515    5.9643 C.3       12 UNK        -0.0954 
     70 S70        32.0840   28.2567    4.2811 S.3       12 UNK        -0.2268 
     71 C71        33.0498   26.9990    3.3813 C.3       12 UNK         0.0203 
     72 H72        30.5564   22.5071   -5.6151 H         1 UNK         0.0888 
     73 H73        31.8897   23.6245   -5.3112 H         1 UNK         0.0888 
     74 H74        31.6078   22.2684   -4.2176 H         1 UNK         0.0888 
     75 H75        30.5973   22.8806   -2.3094 H         1 UNK         0.3017 
     76 H76        29.2864   25.4425   -2.0197 H         1 UNK         0.0873 
     77 H77        29.0905   24.7522    0.3992 H         1 UNK         0.0745 
     78 H78        30.6970   24.8613   -0.2353 H         1 UNK         0.0745 
     79 H79        32.1800   21.7417    1.1712 H         1 UNK         0.0705 
     80 H80        32.4546   23.1627    0.1974 H         1 UNK         0.0705 
     81 H81        32.7710   25.2611    1.3165 H         1 UNK         0.1334 
     82 H82        31.9438   25.6214    5.5128 H         1 UNK         0.1417 
     83 H83        30.8469   22.0570    3.4143 H         1 UNK         0.1562 
     84 H84        31.1068   23.7461    6.7553 H         1 UNK         0.0748 
     85 H85        31.0731   22.1795    5.9906 H         1 UNK         0.0748 
     86 H86        29.3631   25.4782    6.6406 H         1 UNK         0.0940 
     87 H87        27.6720   25.0785    6.7473 H         1 UNK         0.0940 
     88 H88        29.1918   25.7563    4.1729 H         1 UNK         0.0703 
     89 H89        26.7091   24.3900    4.4166 H         1 UNK         0.3081 
     90 H90        26.4044   23.5892    1.7052 H         1 UNK         0.0719 
     91 H91        25.0459   23.4761    3.7163 H         1 UNK         0.0809 
     92 H92        23.9399   23.6308    2.3695 H         1 UNK         0.0809 
     93 H93        24.2861   25.0274    3.3858 H         1 UNK         0.0809 
     94 H94        25.8056   24.6434   -0.0988 H         1 UNK         0.2990 
     95 H95        23.3365   26.5265   -1.0617 H         1 UNK         0.0690 
     96 H96        24.4246   28.4968   -2.0841 H         1 UNK         0.0788 
     97 H97        25.7857   28.3608   -0.9749 H         1 UNK         0.0788 
     98 H98        24.1877   28.7752   -0.3688 H         1 UNK         0.0788 
     99 H99        26.0671   26.2450   -2.1422 H         1 UNK         0.2993 
    100 H100       25.5794   22.9714   -3.2920 H         1 UNK         0.0949 
    101 H101       24.4653   24.2287   -5.1502 H         1 UNK         0.0767 
    102 H102       25.6798   25.4958   -5.0348 H         1 UNK         0.0767 
    103 H103       26.1397   23.8691   -5.5381 H         1 UNK         0.0767 
    104 H104       27.7424   24.7055   -3.7898 H         1 UNK         0.3013 
    105 H105       29.8804   27.6767    5.1762 H         1 UNK         0.3121 
    106 H106       29.9394   29.7970    5.7016 H         1 UNK         0.0774 
    107 H107       28.2125   30.9382    6.9789 H         1 UNK         0.0815 
    108 H108       27.0063   29.7387    6.5495 H         1 UNK         0.0815 
    109 H109       28.3652   29.3001    7.5871 H         1 UNK         0.0815 
    110 H110       28.9747   28.7606    3.0208 H         1 UNK         0.2987 
    111 H111       27.6007   31.0770    1.8518 H         1 UNK         0.0949 
    112 H112       27.0390   28.7734    1.1216 H         1 UNK         0.0806 
    113 H113       27.7135   29.6900   -0.2170 H         1 UNK         0.0806 
    114 H114       28.7042   28.4972    0.6133 H         1 UNK         0.0806 
    115 H115       30.8553   30.4233    2.6238 H         1 UNK         0.3010 
    116 H116       31.8701   32.3713    0.6269 H         1 UNK         0.0829 
    117 H117       32.3970   30.0536   -0.2300 H         1 UNK         0.0813 
    118 H118       33.8569   30.8930    0.2627 H         1 UNK         0.0813 
    119 H119       33.1624   29.6584    1.3067 H         1 UNK         0.0813 
    120 H120       33.8481   33.3729    1.3317 H         1 UNK         0.3038 
    121 H121       33.8748   34.2017    4.0162 H         1 UNK         0.0769 
    122 H122       36.0565   34.4351    1.8711 H         1 UNK         0.0811 
    123 H123       35.9838   35.3772    3.3533 H         1 UNK         0.0811 
    124 H124       34.7355   35.5747    2.1369 H         1 UNK         0.0811 
    125 H125       35.3435   31.3890    2.6624 H         1 UNK         0.3204 
    126 H126       37.3760   30.9050    4.6455 H         1 UNK         0.0748 
    127 H127       37.3676   28.6156    3.6405 H         1 UNK         0.0771 
    128 H128       35.9062   28.9957    2.7406 H         1 UNK         0.0771 
    129 H129       37.4133   29.8447    2.3889 H         1 UNK         0.0771 
    130 H130       33.8922   30.6339    4.7554 H         1 UNK         0.2980 
    131 H131       34.0472   29.2127    7.3356 H         1 UNK         0.0545 
    132 H132       32.3660   31.7029    5.4180 H         1 UNK         0.3459 
    133 H133       31.4017   32.1968    6.7908 H         1 UNK         0.3459 
    134 H134       32.0267   27.8100    6.6537 H         1 UNK         0.0616 
    135 H135       33.5619   27.3705    5.9792 H         1 UNK         0.0616 
    136 H136       34.0662   26.9481    3.7732 H         1 UNK         0.0634 
    137 H137       33.1425   27.3422    2.3501 H         1 UNK         0.0634 
@<TRIPOS>BOND
     1    1    2 1    
     2    1   72 1    
     3    1   73 1    
     4    1   74 1    
     5    2    3 2    
     6    2    4 am   BACKBONE|DICT|INTERRES
     7    4    5 1    
     8    4   75 1    
     9    5    6 1    
    10    5   35 1    
    11    5   76 1    
    12    6    7 1    
    13    6   77 1    
    14    6   78 1    
    15    7    8 1    
    16    8    9 1    
    17    8   79 1    
    18    8   80 1    
    19    9   10 ar   
    20    9   14 ar   
    21   10   11 ar   
    22   10   81 1    
    23   11   12 ar   
    24   11   71 1    
    25   12   13 ar   
    26   12   82 1    
    27   13   14 ar   
    28   13   15 1    
    29   14   83 1    
    30   15   16 1    
    31   15   84 1    
    32   15   85 1    
    33   16   17 1    
    34   17   18 1    
    35   17   86 1    
    36   17   87 1    
    37   18   19 1    
    38   18   37 1    
    39   18   88 1    
    40   19   20 am   BACKBONE|DICT|INTERRES
    41   19   89 1    
    42   20   21 2    
    43   20   22 1    
    44   22   23 1    
    45   22   24 1    
    46   22   90 1    
    47   23   91 1    
    48   23   92 1    
    49   23   93 1    
    50   24   25 am   BACKBONE|DICT|INTERRES
    51   24   94 1    
    52   25   26 2    
    53   25   27 1    
    54   27   28 1    
    55   27   29 1    
    56   27   95 1    
    57   28   96 1    
    58   28   97 1    
    59   28   98 1    
    60   29   30 am   BACKBONE|DICT|INTERRES
    61   29   99 1    
    62   30   31 2    
    63   30   32 1    
    64   32   33 1    
    65   32   34 1    
    66   32  100 1    
    67   33  101 1    
    68   33  102 1    
    69   33  103 1    
    70   34   35 am   BACKBONE|DICT|INTERRES
    71   34  104 1    
    72   35   36 2    
    73   37   38 2    
    74   37   39 am   BACKBONE|DICT|INTERRES
    75   39   40 1    
    76   39  105 1    
    77   40   41 1    
    78   40   42 1    
    79   40  106 1    
    80   41  107 1    
    81   41  108 1    
    82   41  109 1    
    83   42   43 2    
    84   42   44 am   BACKBONE|DICT|INTERRES
    85   44   45 1    
    86   44  110 1    
    87   45   46 1    
    88   45   47 1    
    89   45  111 1    
    90   46  112 1    
    91   46  113 1    
    92   46  114 1    
    93   47   48 2    
    94   47   49 am   BACKBONE|DICT|INTERRES
    95   49   50 1    
    96   49  115 1    
    97   50   51 1    
    98   50   52 1    
    99   50  116 1    
   100   51  117 1    
   101   51  118 1    
   102   51  119 1    
   103   52   53 2    
   104   52   54 am   BACKBONE|DICT|INTERRES
   105   54   55 1    
   106   54  120 1    
   107   55   56 1    
   108   55   57 1    
   109   55  121 1    
   110   56  122 1    
   111   56  123 1    
   112   56  124 1    
   113   57   58 2    
   114   57   59 am   BACKBONE|DICT|INTERRES
   115   59   60 1    
   116   59  125 1    
   117   60   61 1    
   118   60   62 1    
   119   60  126 1    
   120   61  127 1    
   121   61  128 1    
   122   61  129 1    
   123   62   63 2    
   124   62   64 am   BACKBONE|DICT|INTERRES
   125   64   65 1    
   126   64  130 1    
   127   65   66 1    
   128   65   69 1    
   129   65  131 1    
   130   66   67 am   BACKBONE|DICT|INTERRES
   131   66   68 2    
   132   67  132 1    
   133   67  133 1    
   134   69   70 1    
   135   69  134 1    
   136   69  135 1    
   137   70   71 1    
   138   71  136 1    
   139   71  137 1    
@<TRIPOS>SUBSTRUCTURE
     1 UNK         1 GROUP             0       ****    0 ROOT    
