@<TRIPOS>MOLECULE
3R136
137   139    1
SMALL
USER_CHARGES


@<TRIPOS>ATOM
      1 CA         27.3020   20.1654    4.3970 C.3       0 UNK        -0.1979 
      2 C          27.5021   19.8112    2.9308 C.2       0 UNK         0.4864 
      3 O          28.0191   18.7357    2.6248 O.2       0 UNK        -0.5359 
      4 N          27.1023   20.7085    2.0256 N.am      1 UNK        -0.4318 
      5 CA         27.2161   20.5671    0.5756 C.3       1 UNK         0.0824 
      6 C6         28.6541   20.8291    0.0452 C.3       12 UNK        -0.0944 
      7 S7         29.3792   22.4288    0.5613 S.3       12 UNK        -0.2672 
      8 C8         30.5899   21.8502    1.7886 C.3       12 UNK         0.0333 
      9 C9         31.2719   23.0030    2.5082 C.ar      12 UNK        -0.0807 
     10 C10        32.4638   23.5373    2.0101 C.ar      12 UNK        -0.0894 
     11 C11        33.1316   24.5508    2.7040 C.ar      12 UNK        -0.0804 
     12 C12        32.5950   25.0338    3.9022 C.ar      12 UNK        -0.0824 
     13 C13        31.3924   24.5230    4.3991 C.ar      12 UNK        -0.0762 
     14 C14        30.7368   23.5048    3.6988 C.ar      12 UNK        -0.0782 
     15 C15        30.8173   25.0464    5.7083 C.3       12 UNK         0.0230 
     16 S16        29.2518   25.9423    5.4620 S.3       12 UNK        -0.2608 
     17 C17        29.8074   27.5101    4.7044 C.3       12 UNK        -0.0989 
     18 CA         29.8415   27.4843    3.1524 C.3       5 UNK         0.0716 
     19 N          28.6210   26.9042    2.5772 N.am      5 UNK        -0.4135 
     20 C          28.5383   26.3398    1.3663 C.2       4 UNK         0.5031 
     21 O          29.4873   26.2802    0.5819 O.2       4 UNK        -0.5229 
     22 CA         27.1630   25.7439    0.9995 C.3       4 UNK         0.0329 
     23 CB         26.0115   26.7589    1.1780 C.3       4 UNK        -0.2001 
     24 N          27.1272   25.1482   -0.3404 N.am      4 UNK        -0.4303 
     25 C          27.2671   25.7593   -1.5282 C.2       3 UNK         0.5044 
     26 O          27.3622   26.9785   -1.6789 O.2       3 UNK        -0.5152 
     27 CA         27.3088   24.8529   -2.7742 C.3       3 UNK         0.0319 
     28 CB         28.7642   24.6124   -3.2078 C.3       3 UNK        -0.2001 
     29 N          26.6541   23.5579   -2.5714 N.am      3 UNK        -0.4354 
     30 C          25.3285   23.3782   -2.4766 C.2       2 UNK         0.4964 
     31 O          24.5015   24.2760   -2.6382 O.2       2 UNK        -0.5047 
     32 CA         24.8417   21.9600   -2.1244 C.3       2 UNK         0.0288 
     33 CB         24.4917   21.1785   -3.4015 C.3       2 UNK        -0.2113 
     34 N          25.8018   21.1844   -1.3284 N.am      2 UNK        -0.4145 
     35 C          26.1753   21.4898   -0.0772 C.2       1 UNK         0.5006 
     36 O          25.7519   22.4683    0.5459 O.2       1 UNK        -0.5103 
     37 C          30.1680   28.8908    2.5981 C.2       5 UNK         0.5055 
     38 O          31.1994   29.4488    2.9748 O.2       5 UNK        -0.5220 
     39 N          29.2920   29.4417    1.7428 N.am      6 UNK        -0.4450 
     40 CA         29.2975   30.7979    1.1809 C.3       6 UNK         0.0367 
     41 CB         30.6274   31.1067    0.4571 C.3       6 UNK        -0.1929 
     42 C          28.9348   31.8723    2.2244 C.2       6 UNK         0.5070 
     43 O          28.7568   31.5704    3.4085 O.2       6 UNK        -0.5237 
     44 N          28.7955   33.1196    1.7535 N.am      7 UNK        -0.4739 
     45 CA         28.4609   34.2947    2.5644 C.3       7 UNK         0.0276 
     46 CB         28.3568   35.5295    1.6550 C.3       7 UNK        -0.1927 
     47 C          29.4971   34.5265    3.6750 C.2       7 UNK         0.5013 
     48 O          30.6947   34.5267    3.3869 O.2       7 UNK        -0.5193 
     49 N          29.0193   34.6630    4.9204 N.am      8 UNK        -0.4253 
     50 CA         29.8096   34.7919    6.1549 C.3       8 UNK         0.0242 
     51 CB         30.5297   36.1574    6.1932 C.3       8 UNK        -0.2000 
     52 C          30.7744   33.6109    6.4128 C.2       8 UNK         0.4948 
     53 O          31.7746   33.7900    7.1098 O.2       8 UNK        -0.5275 
     54 N          30.4616   32.4339    5.8449 N.am      9 UNK        -0.4246 
     55 CA         31.2597   31.2035    5.8509 C.3       9 UNK         0.0261 
     56 CB         31.3665   30.6107    7.2722 C.3       9 UNK        -0.1959 
     57 C          32.6286   31.3628    5.1547 C.2       9 UNK         0.5033 
     58 O          33.6090   30.7568    5.5936 O.2       9 UNK        -0.5390 
     59 N          32.6765   32.1633    4.0760 N.am      10 UNK        -0.4215 
     60 CA         33.8830   32.4901    3.3032 C.3       10 UNK         0.0240 
     61 CB         33.5403   33.5256    2.2189 C.3       10 UNK        -0.1982 
     62 C          34.6435   31.2965    2.6909 C.2       10 UNK         0.4970 
     63 O          35.8241   31.4566    2.3763 O.2       10 UNK        -0.4916 
     64 N          33.9959   30.1314    2.5478 N.am      11 UNK        -0.4279 
     65 CA         34.6596   28.8599    2.2175 C.3       11 UNK         0.1003 
     66 C          35.6469   28.3675    3.3210 C.2       11 UNK         0.5709 
     67 N          35.4803   28.7499    4.5829 N.am      11 UNK        -0.7358 
     68 O          36.5984   27.6496    3.0242 O.2       11 UNK        -0.4999 
     69 C69        33.6081   27.7792    1.8520 C.3       12 UNK        -0.0954 
     70 S70        34.2553   26.3640    0.8999 S.3       12 UNK        -0.2268 
     71 C71        34.4588   25.0855    2.1839 C.3       12 UNK         0.0203 
     72 H72        26.8455   21.1475    4.5201 H         1 UNK         0.0888 
     73 H73        26.6579   19.4290    4.8769 H         1 UNK         0.0888 
     74 H74        28.2605   20.1705    4.9153 H         1 UNK         0.0888 
     75 H75        26.6453   21.5677    2.3070 H         1 UNK         0.3017 
     76 H76        26.9333   19.5438    0.3180 H         1 UNK         0.0873 
     77 H77        28.6760   20.7828   -1.0450 H         1 UNK         0.0745 
     78 H78        29.3078   20.0191    0.3723 H         1 UNK         0.0745 
     79 H79        30.0929   21.2068    2.5153 H         1 UNK         0.0705 
     80 H80        31.3352   21.2281    1.2905 H         1 UNK         0.0705 
     81 H81        32.8823   23.1519    1.0902 H         1 UNK         0.1334 
     82 H82        33.1170   25.8062    4.4506 H         1 UNK         0.1417 
     83 H83        29.8132   23.0976    4.0876 H         1 UNK         0.1562 
     84 H84        31.5297   25.6918    6.2246 H         1 UNK         0.0748 
     85 H85        30.6348   24.2023    6.3750 H         1 UNK         0.0748 
     86 H86        30.7910   27.7687    5.1020 H         1 UNK         0.0940 
     87 H87        29.1315   28.2933    5.0541 H         1 UNK         0.0940 
     88 H88        30.6743   26.8457    2.8539 H         1 UNK         0.0703 
     89 H89        27.8149   26.8881    3.1848 H         1 UNK         0.3081 
     90 H90        26.9923   24.9158    1.6894 H         1 UNK         0.0719 
     91 H91        26.1785   27.6712    0.6045 H         1 UNK         0.0809 
     92 H92        25.0608   26.3340    0.8551 H         1 UNK         0.0809 
     93 H93        25.8885   27.0483    2.2218 H         1 UNK         0.0809 
     94 H94        27.0470   24.1402   -0.3446 H         1 UNK         0.2990 
     95 H95        26.7922   25.3765   -3.5816 H         1 UNK         0.0690 
     96 H96        28.8156   24.0264   -4.1256 H         1 UNK         0.0788 
     97 H97        29.3323   24.0873   -2.4382 H         1 UNK         0.0788 
     98 H98        29.2744   25.5577   -3.3985 H         1 UNK         0.0788 
     99 H99        27.2573   22.7586   -2.4454 H         1 UNK         0.2993 
    100 H100       23.9314   22.0714   -1.5308 H         1 UNK         0.0949 
    101 H101       24.0587   20.2060   -3.1661 H         1 UNK         0.0767 
    102 H102       23.7588   21.7199   -4.0016 H         1 UNK         0.0767 
    103 H103       25.3689   21.0142   -4.0288 H         1 UNK         0.0767 
    104 H104       26.1918   20.3631   -1.7693 H         1 UNK         0.3013 
    105 H105       28.4745   28.8934    1.5211 H         1 UNK         0.3121 
    106 H106       28.5019   30.8088    0.4343 H         1 UNK         0.0774 
    107 H107       30.5586   32.0234   -0.1288 H         1 UNK         0.0815 
    108 H108       31.4527   31.2347    1.1564 H         1 UNK         0.0815 
    109 H109       30.8973   30.3065   -0.2320 H         1 UNK         0.0815 
    110 H110       28.9702   33.2889    0.7737 H         1 UNK         0.2987 
    111 H111       27.4838   34.1152    3.0183 H         1 UNK         0.0949 
    112 H112       28.0898   36.4167    2.2310 H         1 UNK         0.0806 
    113 H113       29.3019   35.7407    1.1524 H         1 UNK         0.0806 
    114 H114       27.5906   35.3986    0.8906 H         1 UNK         0.0806 
    115 H115       28.0173   34.6262    5.0521 H         1 UNK         0.3010 
    116 H116       29.0934   34.7743    6.9778 H         1 UNK         0.0829 
    117 H117       29.8336   36.9789    6.0238 H         1 UNK         0.0813 
    118 H118       30.9980   36.3282    7.1634 H         1 UNK         0.0813 
    119 H119       31.3145   36.2213    5.4386 H         1 UNK         0.0813 
    120 H120       29.6355   32.3951    5.2574 H         1 UNK         0.3038 
    121 H121       30.6956   30.4899    5.2522 H         1 UNK         0.0769 
    122 H122       31.8285   29.6229    7.2478 H         1 UNK         0.0811 
    123 H123       30.3840   30.4958    7.7297 H         1 UNK         0.0811 
    124 H124       31.9732   31.2357    7.9280 H         1 UNK         0.0811 
    125 H125       31.8319   32.6557    3.8091 H         1 UNK         0.3204 
    126 H126       34.5775   32.9617    4.0012 H         1 UNK         0.0748 
    127 H127       34.4053   33.7446    1.5911 H         1 UNK         0.0771 
    128 H128       32.7400   33.1815    1.5642 H         1 UNK         0.0771 
    129 H129       33.2270   34.4701    2.6633 H         1 UNK         0.0771 
    130 H130       33.0179   30.0641    2.8181 H         1 UNK         0.2980 
    131 H131       35.2598   29.0476    1.3252 H         1 UNK         0.0545 
    132 H132       34.7398   29.3947    4.8465 H         1 UNK         0.3459 
    133 H133       36.1351   28.4341    5.2797 H         1 UNK         0.3459 
    134 H134       33.0848   27.4378    2.7433 H         1 UNK         0.0616 
    135 H135       32.8415   28.2247    1.2164 H         1 UNK         0.0616 
    136 H136       35.0573   25.4761    3.0067 H         1 UNK         0.0634 
    137 H137       35.0375   24.2633    1.7607 H         1 UNK         0.0634 
@<TRIPOS>BOND
     1    1    2 1    
     2    1   72 1    
     3    1   73 1    
     4    1   74 1    
     5    2    3 2    
     6    2    4 am   BACKBONE|DICT|INTERRES
     7    4    5 1    
     8    4   75 1    
     9    5    6 1    
    10    5   35 1    
    11    5   76 1    
    12    6    7 1    
    13    6   77 1    
    14    6   78 1    
    15    7    8 1    
    16    8    9 1    
    17    8   79 1    
    18    8   80 1    
    19    9   10 ar   
    20    9   14 ar   
    21   10   11 ar   
    22   10   81 1    
    23   11   12 ar   
    24   11   71 1    
    25   12   13 ar   
    26   12   82 1    
    27   13   14 ar   
    28   13   15 1    
    29   14   83 1    
    30   15   16 1    
    31   15   84 1    
    32   15   85 1    
    33   16   17 1    
    34   17   18 1    
    35   17   86 1    
    36   17   87 1    
    37   18   19 1    
    38   18   37 1    
    39   18   88 1    
    40   19   20 am   BACKBONE|DICT|INTERRES
    41   19   89 1    
    42   20   21 2    
    43   20   22 1    
    44   22   23 1    
    45   22   24 1    
    46   22   90 1    
    47   23   91 1    
    48   23   92 1    
    49   23   93 1    
    50   24   25 am   BACKBONE|DICT|INTERRES
    51   24   94 1    
    52   25   26 2    
    53   25   27 1    
    54   27   28 1    
    55   27   29 1    
    56   27   95 1    
    57   28   96 1    
    58   28   97 1    
    59   28   98 1    
    60   29   30 am   BACKBONE|DICT|INTERRES
    61   29   99 1    
    62   30   31 2    
    63   30   32 1    
    64   32   33 1    
    65   32   34 1    
    66   32  100 1    
    67   33  101 1    
    68   33  102 1    
    69   33  103 1    
    70   34   35 am   BACKBONE|DICT|INTERRES
    71   34  104 1    
    72   35   36 2    
    73   37   38 2    
    74   37   39 am   BACKBONE|DICT|INTERRES
    75   39   40 1    
    76   39  105 1    
    77   40   41 1    
    78   40   42 1    
    79   40  106 1    
    80   41  107 1    
    81   41  108 1    
    82   41  109 1    
    83   42   43 2    
    84   42   44 am   BACKBONE|DICT|INTERRES
    85   44   45 1    
    86   44  110 1    
    87   45   46 1    
    88   45   47 1    
    89   45  111 1    
    90   46  112 1    
    91   46  113 1    
    92   46  114 1    
    93   47   48 2    
    94   47   49 am   BACKBONE|DICT|INTERRES
    95   49   50 1    
    96   49  115 1    
    97   50   51 1    
    98   50   52 1    
    99   50  116 1    
   100   51  117 1    
   101   51  118 1    
   102   51  119 1    
   103   52   53 2    
   104   52   54 am   BACKBONE|DICT|INTERRES
   105   54   55 1    
   106   54  120 1    
   107   55   56 1    
   108   55   57 1    
   109   55  121 1    
   110   56  122 1    
   111   56  123 1    
   112   56  124 1    
   113   57   58 2    
   114   57   59 am   BACKBONE|DICT|INTERRES
   115   59   60 1    
   116   59  125 1    
   117   60   61 1    
   118   60   62 1    
   119   60  126 1    
   120   61  127 1    
   121   61  128 1    
   122   61  129 1    
   123   62   63 2    
   124   62   64 am   BACKBONE|DICT|INTERRES
   125   64   65 1    
   126   64  130 1    
   127   65   66 1    
   128   65   69 1    
   129   65  131 1    
   130   66   67 am   BACKBONE|DICT|INTERRES
   131   66   68 2    
   132   67  132 1    
   133   67  133 1    
   134   69   70 1    
   135   69  134 1    
   136   69  135 1    
   137   70   71 1    
   138   71  136 1    
   139   71  137 1    
@<TRIPOS>SUBSTRUCTURE
     1 UNK         1 GROUP             0       ****    0 ROOT    
