@<TRIPOS>MOLECULE
3R136
137   139    1
SMALL
USER_CHARGES


@<TRIPOS>ATOM
      1 CA         33.5285   23.8729   -1.9881 C.3       0 UNK        -0.1979 
      2 C          32.5838   24.4833   -0.9635 C.2       0 UNK         0.4864 
      3 O          32.7982   25.6171   -0.5360 O.2       0 UNK        -0.5359 
      4 N          31.5406   23.7394   -0.5710 N.am      1 UNK        -0.4318 
      5 CA         30.5430   24.1470    0.4279 C.3       1 UNK         0.0824 
      6 C6         29.7037   22.9406    0.9208 C.3       12 UNK        -0.0944 
      7 S7         30.7145   21.7245    1.8302 S.3       12 UNK        -0.2672 
      8 C8         30.3240   22.1476    3.5601 C.3       12 UNK         0.0333 
      9 C9         30.8370   23.5316    3.9316 C.ar      12 UNK        -0.0807 
     10 C10        32.1814   23.7151    4.2658 C.ar      12 UNK        -0.0894 
     11 C11        32.6659   24.9890    4.5731 C.ar      12 UNK        -0.0804 
     12 C12        31.7926   26.0796    4.5601 C.ar      12 UNK        -0.0824 
     13 C13        30.4473   25.9156    4.2206 C.ar      12 UNK        -0.0762 
     14 C14        29.9760   24.6338    3.9116 C.ar      12 UNK        -0.0782 
     15 C15        29.5534   27.1478    4.1060 C.3       12 UNK         0.0230 
     16 S16        27.8213   26.8642    4.6025 S.3       12 UNK        -0.2608 
     17 C17        27.0322   28.3323    3.8616 C.3       12 UNK        -0.0989 
     18 CA         26.6853   28.1253    2.3603 C.3       5 UNK         0.0716 
     19 N          25.8118   26.9731    2.1103 N.am      5 UNK        -0.4135 
     20 C          24.5254   26.8401    2.4622 C.2       4 UNK         0.5031 
     21 O          23.8860   27.7060    3.0626 O.2       4 UNK        -0.5229 
     22 CA         23.8329   25.5186    2.0640 C.3       4 UNK         0.0329 
     23 CB         22.3122   25.5462    2.3107 C.3       4 UNK        -0.2001 
     24 N          24.0759   25.1786    0.6596 N.am      4 UNK        -0.4303 
     25 C          25.1593   24.5441    0.1958 C.2       3 UNK         0.5044 
     26 O          26.0589   24.1234    0.9252 O.2       3 UNK        -0.5152 
     27 CA         25.2985   24.3822   -1.3319 C.3       3 UNK         0.0319 
     28 CB         24.1486   25.0132   -2.1525 C.3       3 UNK        -0.2001 
     29 N          26.5998   24.8825   -1.7913 N.am      3 UNK        -0.4354 
     30 C          27.0738   26.1292   -1.6392 C.2       2 UNK         0.4964 
     31 O          26.4290   27.0557   -1.1455 O.2       2 UNK        -0.5047 
     32 CA         28.5372   26.3484   -2.0657 C.3       2 UNK         0.0288 
     33 CB         29.0084   27.8063   -1.8725 C.3       2 UNK        -0.2113 
     34 N          29.4433   25.4136   -1.3844 N.am      2 UNK        -0.4145 
     35 C          29.6070   25.2736   -0.0568 C.2       1 UNK         0.5006 
     36 O          29.0411   25.9730    0.7836 O.2       1 UNK        -0.5103 
     37 C          26.1576   29.4076    1.6828 C.2       5 UNK         0.5055 
     38 O          25.9928   30.4381    2.3399 O.2       5 UNK        -0.5220 
     39 N          25.9075   29.3238    0.3677 N.am      6 UNK        -0.4450 
     40 CA         25.5247   30.4570   -0.4815 C.3       6 UNK         0.0367 
     41 CB         24.9890   29.9294   -1.8223 C.3       6 UNK        -0.1929 
     42 C          26.6815   31.4478   -0.7156 C.2       6 UNK         0.5070 
     43 O          26.4247   32.6072   -1.0414 O.2       6 UNK        -0.5237 
     44 N          27.9221   30.9819   -0.5312 N.am      7 UNK        -0.4739 
     45 CA         29.1397   31.7840   -0.4869 C.3       7 UNK         0.0276 
     46 CB         30.0821   31.3408   -1.6177 C.3       7 UNK        -0.1927 
     47 C          29.8018   31.5656    0.8790 C.2       7 UNK         0.5013 
     48 O          29.6448   30.4947    1.4754 O.2       7 UNK        -0.5193 
     49 N          30.5508   32.5736    1.3403 N.am      8 UNK        -0.4253 
     50 CA         31.2652   32.5764    2.6181 C.3       8 UNK         0.0242 
     51 CB         31.5034   34.0355    3.0519 C.3       8 UNK        -0.2000 
     52 C          32.5704   31.7612    2.5446 C.2       8 UNK         0.4948 
     53 O          33.6612   32.3332    2.6040 O.2       8 UNK        -0.5275 
     54 N          32.4335   30.4378    2.3971 N.am      9 UNK        -0.4246 
     55 CA         33.5309   29.4692    2.4468 C.3       9 UNK         0.0261 
     56 CB         33.0172   28.1017    1.9706 C.3       9 UNK        -0.1959 
     57 C          34.1565   29.3933    3.8537 C.2       9 UNK         0.5033 
     58 O          33.4482   29.5551    4.8515 O.2       9 UNK        -0.5390 
     59 N          35.4761   29.1715    3.9018 N.am      10 UNK        -0.4215 
     60 CA         36.3286   29.3045    5.0880 C.3       10 UNK         0.0240 
     61 CB         37.7864   29.4895    4.6231 C.3       10 UNK        -0.1982 
     62 C          36.1804   28.1623    6.1146 C.2       10 UNK         0.4970 
     63 O          37.1326   27.4133    6.3415 O.2       10 UNK        -0.4916 
     64 N          35.0011   28.0720    6.7330 N.am      11 UNK        -0.4279 
     65 CA         34.6997   27.2349    7.9020 C.3       11 UNK         0.1003 
     66 C          34.0887   28.1092    9.0276 C.2       11 UNK         0.5709 
     67 N          34.2487   27.7048   10.2804 N.am      11 UNK        -0.7358 
     68 O          33.4521   29.1330    8.7815 O.2       11 UNK        -0.4999 
     69 C69        33.7555   26.0559    7.5498 C.3       12 UNK        -0.0954 
     70 S70        34.5795   24.7517    6.5770 S.3       12 UNK        -0.2268 
     71 C71        34.1428   25.1967    4.8686 C.3       12 UNK         0.0203 
     72 H72        33.5617   24.4926   -2.8838 H         1 UNK         0.0888 
     73 H73        34.5363   23.8121   -1.5781 H         1 UNK         0.0888 
     74 H74        33.2208   22.8691   -2.2808 H         1 UNK         0.0888 
     75 H75        31.4338   22.8031   -0.9354 H         1 UNK         0.3017 
     76 H76        31.0897   24.5583    1.2791 H         1 UNK         0.0873 
     77 H77        29.2319   22.4335    0.0772 H         1 UNK         0.0745 
     78 H78        28.8813   23.2639    1.5621 H         1 UNK         0.0745 
     79 H79        29.2467   22.0785    3.7195 H         1 UNK         0.0705 
     80 H80        30.7765   21.4026    4.2162 H         1 UNK         0.0705 
     81 H81        32.8558   22.8694    4.2659 H         1 UNK         0.1334 
     82 H82        32.1714   27.0675    4.7853 H         1 UNK         0.1417 
     83 H83        28.9434   24.4982    3.6212 H         1 UNK         0.1562 
     84 H84        29.5834   27.4825    3.0685 H         1 UNK         0.0748 
     85 H85        29.9530   27.9664    4.7070 H         1 UNK         0.0748 
     86 H86        27.7007   29.1867    3.9880 H         1 UNK         0.0940 
     87 H87        26.1328   28.5664    4.4337 H         1 UNK         0.0940 
     88 H88        27.6173   27.9028    1.8408 H         1 UNK         0.0703 
     89 H89        26.2465   26.2000    1.6198 H         1 UNK         0.3081 
     90 H90        24.2544   24.7369    2.6998 H         1 UNK         0.0719 
     91 H91        22.0891   25.7354    3.3616 H         1 UNK         0.0809 
     92 H92        21.8223   26.3266    1.7270 H         1 UNK         0.0809 
     93 H93        21.8508   24.5930    2.0519 H         1 UNK         0.0809 
     94 H94        23.4094   25.5335   -0.0109 H         1 UNK         0.2990 
     95 H95        25.2926   23.3084   -1.5242 H         1 UNK         0.0690 
     96 H96        24.2984   24.8489   -3.2196 H         1 UNK         0.0788 
     97 H97        24.0687   26.0899   -1.9973 H         1 UNK         0.0788 
     98 H98        23.1872   24.5653   -1.8976 H         1 UNK         0.0788 
     99 H99        27.2246   24.1824   -2.1650 H         1 UNK         0.2993 
    100 H100       28.5870   26.1238   -3.1323 H         1 UNK         0.0949 
    101 H101       28.9770   28.1103   -0.8258 H         1 UNK         0.0767 
    102 H102       30.0308   27.9377   -2.2262 H         1 UNK         0.0767 
    103 H103       28.3791   28.4994   -2.4324 H         1 UNK         0.0767 
    104 H104       29.9618   24.7865   -1.9829 H         1 UNK         0.3013 
    105 H105       26.0667   28.4363   -0.1130 H         1 UNK         0.3121 
    106 H106       24.7205   31.0003    0.0190 H         1 UNK         0.0774 
    107 H107       25.7605   29.4026   -2.3852 H         1 UNK         0.0815 
    108 H108       24.1547   29.2435   -1.6752 H         1 UNK         0.0815 
    109 H109       24.6312   30.7480   -2.4481 H         1 UNK         0.0815 
    110 H110       28.0256   30.0370   -0.1878 H         1 UNK         0.2987 
    111 H111       28.9062   32.8448   -0.6035 H         1 UNK         0.0949 
    112 H112       29.5954   31.4112   -2.5906 H         1 UNK         0.0806 
    113 H113       30.9718   31.9706   -1.6536 H         1 UNK         0.0806 
    114 H114       30.4191   30.3125   -1.4845 H         1 UNK         0.0806 
    115 H115       30.6626   33.3973    0.7664 H         1 UNK         0.3010 
    116 H116       30.6331   32.1074    3.3760 H         1 UNK         0.0829 
    117 H117       32.1133   34.5799    2.3298 H         1 UNK         0.0813 
    118 H118       32.0201   34.0771    4.0118 H         1 UNK         0.0813 
    119 H119       30.5624   34.5732    3.1698 H         1 UNK         0.0813 
    120 H120       31.4917   30.0716    2.3102 H         1 UNK         0.3038 
    121 H121       34.3025   29.8044    1.7503 H         1 UNK         0.0769 
    122 H122       32.7949   28.1175    0.9032 H         1 UNK         0.0811 
    123 H123       32.1028   27.8123    2.4846 H         1 UNK         0.0811 
    124 H124       33.7539   27.3137    2.1328 H         1 UNK         0.0811 
    125 H125       35.9612   29.0000    3.0326 H         1 UNK         0.3204 
    126 H126       36.0381   30.2227    5.6036 H         1 UNK         0.0748 
    127 H127       38.1482   28.6217    4.0698 H         1 UNK         0.0771 
    128 H128       37.8912   30.3649    3.9817 H         1 UNK         0.0771 
    129 H129       38.4537   29.6354    5.4738 H         1 UNK         0.0771 
    130 H130       34.2690   28.7224    6.4603 H         1 UNK         0.2980 
    131 H131       35.6300   26.8253    8.3010 H         1 UNK         0.0545 
    132 H132       33.8505   28.2539   11.0262 H         1 UNK         0.3459 
    133 H133       34.7590   26.8623   10.4961 H         1 UNK         0.3459 
    134 H134       32.8625   26.4141    7.0390 H         1 UNK         0.0616 
    135 H135       33.3980   25.5709    8.4601 H         1 UNK         0.0616 
    136 H136       34.4320   26.2289    4.6713 H         1 UNK         0.0634 
    137 H137       34.7363   24.5844    4.1881 H         1 UNK         0.0634 
@<TRIPOS>BOND
     1    1    2 1    
     2    1   72 1    
     3    1   73 1    
     4    1   74 1    
     5    2    3 2    
     6    2    4 am   BACKBONE|DICT|INTERRES
     7    4    5 1    
     8    4   75 1    
     9    5    6 1    
    10    5   35 1    
    11    5   76 1    
    12    6    7 1    
    13    6   77 1    
    14    6   78 1    
    15    7    8 1    
    16    8    9 1    
    17    8   79 1    
    18    8   80 1    
    19    9   10 ar   
    20    9   14 ar   
    21   10   11 ar   
    22   10   81 1    
    23   11   12 ar   
    24   11   71 1    
    25   12   13 ar   
    26   12   82 1    
    27   13   14 ar   
    28   13   15 1    
    29   14   83 1    
    30   15   16 1    
    31   15   84 1    
    32   15   85 1    
    33   16   17 1    
    34   17   18 1    
    35   17   86 1    
    36   17   87 1    
    37   18   19 1    
    38   18   37 1    
    39   18   88 1    
    40   19   20 am   BACKBONE|DICT|INTERRES
    41   19   89 1    
    42   20   21 2    
    43   20   22 1    
    44   22   23 1    
    45   22   24 1    
    46   22   90 1    
    47   23   91 1    
    48   23   92 1    
    49   23   93 1    
    50   24   25 am   BACKBONE|DICT|INTERRES
    51   24   94 1    
    52   25   26 2    
    53   25   27 1    
    54   27   28 1    
    55   27   29 1    
    56   27   95 1    
    57   28   96 1    
    58   28   97 1    
    59   28   98 1    
    60   29   30 am   BACKBONE|DICT|INTERRES
    61   29   99 1    
    62   30   31 2    
    63   30   32 1    
    64   32   33 1    
    65   32   34 1    
    66   32  100 1    
    67   33  101 1    
    68   33  102 1    
    69   33  103 1    
    70   34   35 am   BACKBONE|DICT|INTERRES
    71   34  104 1    
    72   35   36 2    
    73   37   38 2    
    74   37   39 am   BACKBONE|DICT|INTERRES
    75   39   40 1    
    76   39  105 1    
    77   40   41 1    
    78   40   42 1    
    79   40  106 1    
    80   41  107 1    
    81   41  108 1    
    82   41  109 1    
    83   42   43 2    
    84   42   44 am   BACKBONE|DICT|INTERRES
    85   44   45 1    
    86   44  110 1    
    87   45   46 1    
    88   45   47 1    
    89   45  111 1    
    90   46  112 1    
    91   46  113 1    
    92   46  114 1    
    93   47   48 2    
    94   47   49 am   BACKBONE|DICT|INTERRES
    95   49   50 1    
    96   49  115 1    
    97   50   51 1    
    98   50   52 1    
    99   50  116 1    
   100   51  117 1    
   101   51  118 1    
   102   51  119 1    
   103   52   53 2    
   104   52   54 am   BACKBONE|DICT|INTERRES
   105   54   55 1    
   106   54  120 1    
   107   55   56 1    
   108   55   57 1    
   109   55  121 1    
   110   56  122 1    
   111   56  123 1    
   112   56  124 1    
   113   57   58 2    
   114   57   59 am   BACKBONE|DICT|INTERRES
   115   59   60 1    
   116   59  125 1    
   117   60   61 1    
   118   60   62 1    
   119   60  126 1    
   120   61  127 1    
   121   61  128 1    
   122   61  129 1    
   123   62   63 2    
   124   62   64 am   BACKBONE|DICT|INTERRES
   125   64   65 1    
   126   64  130 1    
   127   65   66 1    
   128   65   69 1    
   129   65  131 1    
   130   66   67 am   BACKBONE|DICT|INTERRES
   131   66   68 2    
   132   67  132 1    
   133   67  133 1    
   134   69   70 1    
   135   69  134 1    
   136   69  135 1    
   137   70   71 1    
   138   71  136 1    
   139   71  137 1    
@<TRIPOS>SUBSTRUCTURE
     1 UNK         1 GROUP             0       ****    0 ROOT    
