@<TRIPOS>MOLECULE
3R136
137   139    1
SMALL
USER_CHARGES


@<TRIPOS>ATOM
      1 CA         34.4076   20.9510    0.0726 C.3       0 UNK        -0.1979 
      2 C          33.5869   22.1487    0.5281 C.2       0 UNK         0.4864 
      3 O          34.1570   23.1862    0.8683 O.2       0 UNK        -0.5359 
      4 N          32.2552   22.0093    0.5459 N.am      1 UNK        -0.4318 
      5 CA         31.3060   23.0663    0.9085 C.3       1 UNK         0.0824 
      6 C6         29.8854   22.5000    1.1484 C.3       12 UNK        -0.0944 
      7 S7         29.8292   21.4467    2.6346 S.3       12 UNK        -0.2672 
      8 C8         28.3119   22.0507    3.4550 C.3       12 UNK         0.0333 
      9 C9         28.3490   23.4824    4.0005 C.ar      12 UNK        -0.0807 
     10 C10        29.5324   24.2232    4.1394 C.ar      12 UNK        -0.0894 
     11 C11        29.5054   25.5190    4.6643 C.ar      12 UNK        -0.0804 
     12 C12        28.2907   26.0679    5.0801 C.ar      12 UNK        -0.0824 
     13 C13        27.1038   25.3393    4.9644 C.ar      12 UNK        -0.0762 
     14 C14        27.1409   24.0554    4.4133 C.ar      12 UNK        -0.0782 
     15 C15        25.7942   25.9086    5.4960 C.3       12 UNK         0.0230 
     16 S16        25.4054   27.5519    4.8171 S.3       12 UNK        -0.2608 
     17 C17        24.8385   27.1599    3.1254 C.3       12 UNK        -0.0989 
     18 CA         25.9036   27.4315    2.0245 C.3       5 UNK         0.0716 
     19 N          25.5741   26.7540    0.7664 N.am      5 UNK        -0.4135 
     20 C          24.5211   27.0015   -0.0250 C.2       4 UNK         0.5031 
     21 O          23.6971   27.8928    0.1883 O.2       4 UNK        -0.5229 
     22 CA         24.3604   26.0901   -1.2604 C.3       4 UNK         0.0329 
     23 CB         23.1474   26.4736   -2.1298 C.3       4 UNK        -0.2001 
     24 N          25.5592   26.0893   -2.1002 N.am      4 UNK        -0.4303 
     25 C          26.6750   25.3882   -1.8640 C.2       3 UNK         0.5044 
     26 O          26.7972   24.6153   -0.9104 O.2       3 UNK        -0.5152 
     27 CA         27.8648   25.6039   -2.8240 C.3       3 UNK         0.0319 
     28 CB         27.6788   26.7878   -3.8016 C.3       3 UNK        -0.2001 
     29 N          29.1382   25.7491   -2.1091 N.am      3 UNK        -0.4354 
     30 C          29.4177   26.6151   -1.1245 C.2       2 UNK         0.4964 
     31 O          28.5971   27.3903   -0.6304 O.2       2 UNK        -0.5047 
     32 CA         30.8551   26.5775   -0.5822 C.3       2 UNK         0.0288 
     33 CB         31.2144   27.8450    0.2093 C.3       2 UNK        -0.2113 
     34 N          31.0472   25.4112    0.2755 N.am      2 UNK        -0.4145 
     35 C          31.2594   24.1660   -0.1675 C.2       1 UNK         0.5006 
     36 O          31.3623   23.8708   -1.3624 O.2       1 UNK        -0.5103 
     37 C          26.2282   28.9308    1.8140 C.2       5 UNK         0.5055 
     38 O          25.6605   29.7972    2.4838 O.2       5 UNK        -0.5220 
     39 N          27.1758   29.2275    0.9136 N.am      6 UNK        -0.4450 
     40 CA         27.7979   30.5480    0.7776 C.3       6 UNK         0.0367 
     41 CB         28.2891   30.7376   -0.6693 C.3       6 UNK        -0.1929 
     42 C          28.9281   30.6822    1.8161 C.2       6 UNK         0.5070 
     43 O          30.0998   30.7779    1.4522 O.2       6 UNK        -0.5237 
     44 N          28.5460   30.6511    3.1012 N.am      7 UNK        -0.4739 
     45 CA         29.4050   30.4800    4.2822 C.3       7 UNK         0.0276 
     46 CB         28.5097   30.2981    5.5194 C.3       7 UNK        -0.1927 
     47 C          30.4775   31.5586    4.5320 C.2       7 UNK         0.5013 
     48 O          31.2830   31.3961    5.4493 O.2       7 UNK        -0.5193 
     49 N          30.4983   32.6203    3.7158 N.am      8 UNK        -0.4253 
     50 CA         31.6114   33.5669    3.6151 C.3       8 UNK         0.0242 
     51 CB         31.1744   34.7718    2.7664 C.3       8 UNK        -0.2000 
     52 C          32.8847   32.9235    3.0273 C.2       8 UNK         0.4948 
     53 O          33.9829   33.4003    3.3174 O.2       8 UNK        -0.5275 
     54 N          32.7199   31.8579    2.2318 N.am      9 UNK        -0.4246 
     55 CA         33.7866   31.0004    1.7251 C.3       9 UNK         0.0261 
     56 CB         33.6148   30.8513    0.2049 C.3       9 UNK        -0.1959 
     57 C          33.7032   29.6318    2.4174 C.2       9 UNK         0.5033 
     58 O          32.6465   29.2664    2.9404 O.2       9 UNK        -0.5390 
     59 N          34.8240   28.8955    2.4036 N.am      10 UNK        -0.4215 
     60 CA         35.0532   27.5560    2.9729 C.3       10 UNK         0.0240 
     61 CB         34.1583   26.4916    2.3054 C.3       10 UNK        -0.1982 
     62 C          34.9524   27.4907    4.5088 C.2       10 UNK         0.4970 
     63 O          35.9024   27.0499    5.1565 O.2       10 UNK        -0.4916 
     64 N          33.8215   27.9422    5.0570 N.am      11 UNK        -0.4279 
     65 CA         33.5547   28.0680    6.4965 C.3       11 UNK         0.1003 
     66 C          34.1358   29.3655    7.1326 C.2       11 UNK         0.5709 
     67 N          34.7000   30.2945    6.3692 N.am      11 UNK        -0.7358 
     68 O          34.0965   29.5211    8.3510 O.2       11 UNK        -0.4999 
     69 C69        32.0415   27.9130    6.7989 C.3       12 UNK        -0.0954 
     70 S70        31.4383   26.2170    6.4979 S.3       12 UNK        -0.2268 
     71 C71        30.7845   26.3284    4.8047 C.3       12 UNK         0.0203 
     72 H72        33.7781   20.0992   -0.1845 H         1 UNK         0.0888 
     73 H73        34.9980   21.2135   -0.8048 H         1 UNK         0.0888 
     74 H74        35.0903   20.6415    0.8635 H         1 UNK         0.0888 
     75 H75        31.8421   21.1377    0.2476 H         1 UNK         0.3017 
     76 H76        31.6645   23.5233    1.8333 H         1 UNK         0.0873 
     77 H77        29.5471   21.9165    0.2898 H         1 UNK         0.0745 
     78 H78        29.1605   23.3090    1.2633 H         1 UNK         0.0745 
     79 H79        27.4840   21.9534    2.7506 H         1 UNK         0.0705 
     80 H80        28.0892   21.3776    4.2840 H         1 UNK         0.0705 
     81 H81        30.4830   23.7958    3.8581 H         1 UNK         0.1334 
     82 H82        28.2726   27.0578    5.5146 H         1 UNK         0.1417 
     83 H83        26.2259   23.4839    4.3311 H         1 UNK         0.1562 
     84 H84        25.8743   25.9948    6.5804 H         1 UNK         0.0748 
     85 H85        24.9594   25.2319    5.3070 H         1 UNK         0.0748 
     86 H86        23.9292   27.7305    2.9278 H         1 UNK         0.0940 
     87 H87        24.5370   26.1118    3.0971 H         1 UNK         0.0940 
     88 H88        26.8363   26.9720    2.3565 H         1 UNK         0.0703 
     89 H89        26.2092   26.0187    0.4724 H         1 UNK         0.3081 
     90 H90        24.1903   25.0773   -0.8885 H         1 UNK         0.0719 
     91 H91        22.2236   26.4369   -1.5507 H         1 UNK         0.0809 
     92 H92        23.2407   27.4833   -2.5318 H         1 UNK         0.0809 
     93 H93        23.0272   25.7877   -2.9685 H         1 UNK         0.0809 
     94 H94        25.5605   26.7319   -2.8791 H         1 UNK         0.2990 
     95 H95        27.9457   24.6909   -3.4153 H         1 UNK         0.0690 
     96 H96        28.5466   26.8949   -4.4527 H         1 UNK         0.0788 
     97 H97        27.5467   27.7350   -3.2760 H         1 UNK         0.0788 
     98 H98        26.8168   26.6392   -4.4531 H         1 UNK         0.0788 
     99 H99        29.8622   25.0838   -2.3564 H         1 UNK         0.2993 
    100 H100       31.5333   26.5173   -1.4365 H         1 UNK         0.0949 
    101 H101       32.2720   27.8593    0.4668 H         1 UNK         0.0767 
    102 H102       31.0180   28.7404   -0.3801 H         1 UNK         0.0767 
    103 H103       30.6411   27.9336    1.1334 H         1 UNK         0.0767 
    104 H104       30.9261   25.5656    1.2652 H         1 UNK         0.3013 
    105 H105       27.6261   28.4737    0.3922 H         1 UNK         0.3121 
    106 H106       27.0619   31.3289    0.9805 H         1 UNK         0.0774 
    107 H107       29.0495   30.0058   -0.9408 H         1 UNK         0.0815 
    108 H108       27.4688   30.6453   -1.3810 H         1 UNK         0.0815 
    109 H109       28.7285   31.7266   -0.8039 H         1 UNK         0.0815 
    110 H110       27.5487   30.5810    3.2700 H         1 UNK         0.2987 
    111 H111       29.9590   29.5534    4.1252 H         1 UNK         0.0949 
    112 H112       27.8116   29.4716    5.3886 H         1 UNK         0.0806 
    113 H113       29.1038   30.0782    6.4077 H         1 UNK         0.0806 
    114 H114       27.9289   31.1970    5.7288 H         1 UNK         0.0806 
    115 H115       29.8041   32.6525    2.9834 H         1 UNK         0.3010 
    116 H116       31.8520   33.9190    4.6205 H         1 UNK         0.0829 
    117 H117       30.9114   34.4756    1.7499 H         1 UNK         0.0813 
    118 H118       31.9762   35.5081    2.6942 H         1 UNK         0.0813 
    119 H119       30.3125   35.2752    3.2047 H         1 UNK         0.0813 
    120 H120       31.7806   31.4903    2.0893 H         1 UNK         0.3038 
    121 H121       34.7658   31.4371    1.9321 H         1 UNK         0.0769 
    122 H122       33.7281   31.8115   -0.2986 H         1 UNK         0.0811 
    123 H123       32.6301   30.4594   -0.0503 H         1 UNK         0.0811 
    124 H124       34.3584   30.1740   -0.2168 H         1 UNK         0.0811 
    125 H125       35.6375   29.3047    1.9639 H         1 UNK         0.3204 
    126 H126       36.0856   27.3057    2.7229 H         1 UNK         0.0748 
    127 H127       33.0989   26.6837    2.4689 H         1 UNK         0.0771 
    128 H128       34.3263   26.4511    1.2291 H         1 UNK         0.0771 
    129 H129       34.3714   25.4973    2.7005 H         1 UNK         0.0771 
    130 H130       33.1334   28.3513    4.4272 H         1 UNK         0.2980 
    131 H131       34.0712   27.2508    7.0036 H         1 UNK         0.0545 
    132 H132       34.7267   30.1849    5.3697 H         1 UNK         0.3459 
    133 H133       35.0737   31.1253    6.7994 H         1 UNK         0.3459 
    134 H134       31.4540   28.6352    6.2299 H         1 UNK         0.0616 
    135 H135       31.8368   28.1269    7.8494 H         1 UNK         0.0616 
    136 H136       30.5886   27.3649    4.5327 H         1 UNK         0.0634 
    137 H137       31.5445   25.9691    4.1108 H         1 UNK         0.0634 
@<TRIPOS>BOND
     1    1    2 1    
     2    1   72 1    
     3    1   73 1    
     4    1   74 1    
     5    2    3 2    
     6    2    4 am   BACKBONE|DICT|INTERRES
     7    4    5 1    
     8    4   75 1    
     9    5    6 1    
    10    5   35 1    
    11    5   76 1    
    12    6    7 1    
    13    6   77 1    
    14    6   78 1    
    15    7    8 1    
    16    8    9 1    
    17    8   79 1    
    18    8   80 1    
    19    9   10 ar   
    20    9   14 ar   
    21   10   11 ar   
    22   10   81 1    
    23   11   12 ar   
    24   11   71 1    
    25   12   13 ar   
    26   12   82 1    
    27   13   14 ar   
    28   13   15 1    
    29   14   83 1    
    30   15   16 1    
    31   15   84 1    
    32   15   85 1    
    33   16   17 1    
    34   17   18 1    
    35   17   86 1    
    36   17   87 1    
    37   18   19 1    
    38   18   37 1    
    39   18   88 1    
    40   19   20 am   BACKBONE|DICT|INTERRES
    41   19   89 1    
    42   20   21 2    
    43   20   22 1    
    44   22   23 1    
    45   22   24 1    
    46   22   90 1    
    47   23   91 1    
    48   23   92 1    
    49   23   93 1    
    50   24   25 am   BACKBONE|DICT|INTERRES
    51   24   94 1    
    52   25   26 2    
    53   25   27 1    
    54   27   28 1    
    55   27   29 1    
    56   27   95 1    
    57   28   96 1    
    58   28   97 1    
    59   28   98 1    
    60   29   30 am   BACKBONE|DICT|INTERRES
    61   29   99 1    
    62   30   31 2    
    63   30   32 1    
    64   32   33 1    
    65   32   34 1    
    66   32  100 1    
    67   33  101 1    
    68   33  102 1    
    69   33  103 1    
    70   34   35 am   BACKBONE|DICT|INTERRES
    71   34  104 1    
    72   35   36 2    
    73   37   38 2    
    74   37   39 am   BACKBONE|DICT|INTERRES
    75   39   40 1    
    76   39  105 1    
    77   40   41 1    
    78   40   42 1    
    79   40  106 1    
    80   41  107 1    
    81   41  108 1    
    82   41  109 1    
    83   42   43 2    
    84   42   44 am   BACKBONE|DICT|INTERRES
    85   44   45 1    
    86   44  110 1    
    87   45   46 1    
    88   45   47 1    
    89   45  111 1    
    90   46  112 1    
    91   46  113 1    
    92   46  114 1    
    93   47   48 2    
    94   47   49 am   BACKBONE|DICT|INTERRES
    95   49   50 1    
    96   49  115 1    
    97   50   51 1    
    98   50   52 1    
    99   50  116 1    
   100   51  117 1    
   101   51  118 1    
   102   51  119 1    
   103   52   53 2    
   104   52   54 am   BACKBONE|DICT|INTERRES
   105   54   55 1    
   106   54  120 1    
   107   55   56 1    
   108   55   57 1    
   109   55  121 1    
   110   56  122 1    
   111   56  123 1    
   112   56  124 1    
   113   57   58 2    
   114   57   59 am   BACKBONE|DICT|INTERRES
   115   59   60 1    
   116   59  125 1    
   117   60   61 1    
   118   60   62 1    
   119   60  126 1    
   120   61  127 1    
   121   61  128 1    
   122   61  129 1    
   123   62   63 2    
   124   62   64 am   BACKBONE|DICT|INTERRES
   125   64   65 1    
   126   64  130 1    
   127   65   66 1    
   128   65   69 1    
   129   65  131 1    
   130   66   67 am   BACKBONE|DICT|INTERRES
   131   66   68 2    
   132   67  132 1    
   133   67  133 1    
   134   69   70 1    
   135   69  134 1    
   136   69  135 1    
   137   70   71 1    
   138   71  136 1    
   139   71  137 1    
@<TRIPOS>SUBSTRUCTURE
     1 UNK         1 GROUP             0       ****    0 ROOT    
