@<TRIPOS>MOLECULE
3R136
137   139    1
SMALL
USER_CHARGES


@<TRIPOS>ATOM
      1 CA         27.0953   21.4415    5.3135 C.3       0 UNK        -0.1979 
      2 C          27.2996   21.8760    3.8699 C.2       0 UNK         0.4864 
      3 O          27.2292   21.0430    2.9654 O.2       0 UNK        -0.5359 
      4 N          27.5531   23.1735    3.6494 N.am      1 UNK        -0.4318 
      5 CA         27.7965   23.7773    2.3291 C.3       1 UNK         0.0824 
      6 C6         28.4579   25.1798    2.4281 C.3       12 UNK        -0.0944 
      7 S7         29.7766   25.2835    3.6924 S.3       12 UNK        -0.2672 
      8 C8         31.2588   24.7701    2.7707 C.3       12 UNK         0.0333 
      9 C9         31.8037   25.8898    1.8977 C.ar      12 UNK        -0.0807 
     10 C10        32.3498   27.0345    2.4867 C.ar      12 UNK        -0.0894 
     11 C11        32.8565   28.0675    1.6935 C.ar      12 UNK        -0.0804 
     12 C12        32.8148   27.9493    0.3017 C.ar      12 UNK        -0.0824 
     13 C13        32.2775   26.8073   -0.2987 C.ar      12 UNK        -0.0762 
     14 C14        31.7813   25.7759    0.5049 C.ar      12 UNK        -0.0782 
     15 C15        32.2437   26.6933   -1.8154 C.3       12 UNK         0.0230 
     16 S16        30.7919   27.5343   -2.5210 S.3       12 UNK        -0.2608 
     17 C17        29.4800   26.3229   -2.1591 C.3       12 UNK        -0.0989 
     18 CA         28.0611   26.9370   -2.2377 C.3       5 UNK         0.0716 
     19 N          27.0428   25.9098   -2.4237 N.am      5 UNK        -0.4135 
     20 C          26.7492   25.3224   -3.5884 C.2       4 UNK         0.5031 
     21 O          27.3273   25.5740   -4.6468 O.2       4 UNK        -0.5229 
     22 CA         25.6240   24.2748   -3.5864 C.3       4 UNK         0.0329 
     23 CB         26.2004   22.8675   -3.3612 C.3       4 UNK        -0.2001 
     24 N          24.5801   24.5330   -2.5929 N.am      4 UNK        -0.4303 
     25 C          23.6954   25.5407   -2.6459 C.2       3 UNK         0.5044 
     26 O          23.6875   26.3939   -3.5339 O.2       3 UNK        -0.5152 
     27 CA         22.6173   25.5976   -1.5460 C.3       3 UNK         0.0319 
     28 CB         21.2353   25.2582   -2.1299 C.3       3 UNK        -0.2001 
     29 N          22.8975   24.6831   -0.4361 N.am      3 UNK        -0.4354 
     30 C          23.6962   24.9668    0.6004 C.2       2 UNK         0.4964 
     31 O          24.1804   26.0813    0.7999 O.2       2 UNK        -0.5047 
     32 CA         23.9876   23.8206    1.5894 C.3       2 UNK         0.0288 
     33 CB         23.7024   22.4099    1.0212 C.3       2 UNK        -0.2113 
     34 N          25.3488   23.8749    2.1336 N.am      2 UNK        -0.4145 
     35 C          26.5140   23.8238    1.4634 C.2       1 UNK         0.5006 
     36 O          26.6059   23.7747    0.2342 O.2       1 UNK        -0.5103 
     37 C          27.6915   27.7309   -0.9752 C.2       5 UNK         0.5055 
     38 O          27.1463   27.1501   -0.0348 O.2       5 UNK        -0.5220 
     39 N          27.9807   29.0373   -0.9749 N.am      6 UNK        -0.4450 
     40 CA         27.7263   29.9302    0.1548 C.3       6 UNK         0.0367 
     41 CB         27.7204   31.3880   -0.3353 C.3       6 UNK        -0.1929 
     42 C          28.7810   29.7240    1.2523 C.2       6 UNK         0.5070 
     43 O          29.9730   29.8732    0.9792 O.2       6 UNK        -0.5237 
     44 N          28.3221   29.4041    2.4678 N.am      7 UNK        -0.4739 
     45 CA         29.1644   29.2343    3.6528 C.3       7 UNK         0.0276 
     46 CB         28.3343   28.5688    4.7632 C.3       7 UNK        -0.1927 
     47 C          29.7306   30.5751    4.1511 C.2       7 UNK         0.5013 
     48 O          29.0711   31.6097    4.0169 O.2       7 UNK        -0.5193 
     49 N          30.9146   30.5205    4.7669 N.am      8 UNK        -0.4253 
     50 CA         31.5991   31.6424    5.3997 C.3       8 UNK         0.0242 
     51 CB         32.3016   32.5161    4.3428 C.3       8 UNK        -0.2000 
     52 C          32.6152   31.0683    6.3889 C.2       8 UNK         0.4948 
     53 O          33.1845   30.0064    6.1213 O.2       8 UNK        -0.5275 
     54 N          32.8551   31.7924    7.4905 N.am      9 UNK        -0.4246 
     55 CA         33.7859   31.4073    8.5600 C.3       9 UNK         0.0261 
     56 CB         33.6574   32.3955    9.7305 C.3       9 UNK        -0.1959 
     57 C          35.2524   31.3011    8.1044 C.2       9 UNK         0.5033 
     58 O          36.0050   30.5075    8.6713 O.2       9 UNK        -0.5390 
     59 N          35.6200   32.0661    7.0660 N.am      10 UNK        -0.4215 
     60 CA         36.9340   32.0492    6.4166 C.3       10 UNK         0.0240 
     61 CB         36.9794   33.1533    5.3475 C.3       10 UNK        -0.1982 
     62 C          37.3141   30.6900    5.7982 C.2       10 UNK         0.4970 
     63 O          38.5066   30.4100    5.6687 O.2       10 UNK        -0.4916 
     64 N          36.3127   29.8737    5.4437 N.am      11 UNK        -0.4279 
     65 CA         36.4943   28.4996    4.9541 C.3       11 UNK         0.1003 
     66 C          36.6878   27.4505    6.0893 C.2       11 UNK         0.5709 
     67 N          36.6049   27.8103    7.3663 N.am      11 UNK        -0.7358 
     68 O          36.9367   26.2812    5.8052 O.2       11 UNK        -0.4999 
     69 C69        35.3611   28.0829    3.9811 C.3       12 UNK        -0.0954 
     70 S70        35.2368   29.1955    2.5383 S.3       12 UNK        -0.2268 
     71 C71        33.4352   29.3201    2.3322 C.3       12 UNK         0.0203 
     72 H72        27.1935   22.2754    6.0084 H         1 UNK         0.0888 
     73 H73        27.8319   20.6859    5.5853 H         1 UNK         0.0888 
     74 H74        26.1023   21.0106    5.4387 H         1 UNK         0.0888 
     75 H75        27.6437   23.8042    4.4338 H         1 UNK         0.3017 
     76 H76        28.4990   23.1242    1.8069 H         1 UNK         0.0873 
     77 H77        27.7115   25.9354    2.6805 H         1 UNK         0.0745 
     78 H78        28.8622   25.4795    1.4596 H         1 UNK         0.0745 
     79 H79        32.0286   24.4746    3.4848 H         1 UNK         0.0705 
     80 H80        31.0309   23.8804    2.1817 H         1 UNK         0.0705 
     81 H81        32.3725   27.1202    3.5642 H         1 UNK         0.1334 
     82 H82        33.1967   28.7509   -0.3156 H         1 UNK         0.1417 
     83 H83        31.3745   24.8851    0.0464 H         1 UNK         0.1562 
     84 H84        32.2521   25.6474   -2.1265 H         1 UNK         0.0748 
     85 H85        33.1462   27.1407   -2.2347 H         1 UNK         0.0748 
     86 H86        29.6372   25.8582   -1.1860 H         1 UNK         0.0940 
     87 H87        29.5879   25.5206   -2.8907 H         1 UNK         0.0940 
     88 H88        28.0044   27.6159   -3.0919 H         1 UNK         0.0703 
     89 H89        26.5333   25.6635   -1.5821 H         1 UNK         0.3081 
     90 H90        25.1572   24.2960   -4.5736 H         1 UNK         0.0719 
     91 H91        26.6636   22.7731   -2.3780 H         1 UNK         0.0809 
     92 H92        25.4276   22.1030   -3.4438 H         1 UNK         0.0809 
     93 H93        26.9644   22.6353   -4.1045 H         1 UNK         0.0809 
     94 H94        24.5354   23.8979   -1.8096 H         1 UNK         0.2990 
     95 H95        22.5853   26.6231   -1.1715 H         1 UNK         0.0690 
     96 H96        20.4543   25.3402   -1.3736 H         1 UNK         0.0788 
     97 H97        21.2047   24.2469   -2.5374 H         1 UNK         0.0788 
     98 H98        20.9734   25.9429   -2.9379 H         1 UNK         0.0788 
     99 H99        22.5141   23.7510   -0.5075 H         1 UNK         0.2993 
    100 H100       23.3161   23.9796    2.4346 H         1 UNK         0.0949 
    101 H101       22.6460   22.2755    0.7856 H         1 UNK         0.0767 
    102 H102       24.2782   22.2092    0.1166 H         1 UNK         0.0767 
    103 H103       23.9599   21.6387    1.7478 H         1 UNK         0.0767 
    104 H104       25.4072   23.9451    3.1392 H         1 UNK         0.3013 
    105 H105       28.4967   29.4247   -1.7520 H         1 UNK         0.3121 
    106 H106       26.7363   29.7074    0.5598 H         1 UNK         0.0774 
    107 H107       26.9461   31.5527   -1.0847 H         1 UNK         0.0815 
    108 H108       28.6787   31.6721   -0.7722 H         1 UNK         0.0815 
    109 H109       27.5242   32.0733    0.4904 H         1 UNK         0.0815 
    110 H110       27.3254   29.3269    2.6080 H         1 UNK         0.2987 
    111 H111       29.9930   28.5744    3.3855 H         1 UNK         0.0949 
    112 H112       27.5115   29.2063    5.0898 H         1 UNK         0.0806 
    113 H113       27.9110   27.6206    4.4338 H         1 UNK         0.0806 
    114 H114       28.9506   28.3578    5.6381 H         1 UNK         0.0806 
    115 H115       31.3844   29.6327    4.8957 H         1 UNK         0.3010 
    116 H116       30.8675   32.2410    5.9469 H         1 UNK         0.0829 
    117 H117       31.5925   32.9101    3.6146 H         1 UNK         0.0813 
    118 H118       32.7940   33.3716    4.8065 H         1 UNK         0.0813 
    119 H119       33.0635   31.9581    3.7974 H         1 UNK         0.0813 
    120 H120       32.3480   32.6561    7.6249 H         1 UNK         0.3038 
    121 H121       33.4876   30.4181    8.9141 H         1 UNK         0.0769 
    122 H122       33.9159   33.4125    9.4326 H         1 UNK         0.0811 
    123 H123       34.3220   32.1176   10.5501 H         1 UNK         0.0811 
    124 H124       32.6433   32.4087   10.1303 H         1 UNK         0.0811 
    125 H125       34.9293   32.6887    6.6738 H         1 UNK         0.3204 
    126 H126       37.6804   32.2775    7.1803 H         1 UNK         0.0748 
    127 H127       36.8021   34.1371    5.7828 H         1 UNK         0.0771 
    128 H128       37.9564   33.1879    4.8631 H         1 UNK         0.0771 
    129 H129       36.2348   32.9902    4.5669 H         1 UNK         0.0771 
    130 H130       35.3546   30.1555    5.6083 H         1 UNK         0.2980 
    131 H131       37.4226   28.4701    4.3804 H         1 UNK         0.0545 
    132 H132       36.7413   27.1119    8.0794 H         1 UNK         0.3459 
    133 H133       36.4137   28.7686    7.6342 H         1 UNK         0.3459 
    134 H134       35.5254   27.0729    3.6014 H         1 UNK         0.0616 
    135 H135       34.4090   28.0598    4.5131 H         1 UNK         0.0616 
    136 H136       33.2073   30.1883    1.7121 H         1 UNK         0.0634 
    137 H137       32.9704   29.5076    3.2987 H         1 UNK         0.0634 
@<TRIPOS>BOND
     1    1    2 1    
     2    1   72 1    
     3    1   73 1    
     4    1   74 1    
     5    2    3 2    
     6    2    4 am   BACKBONE|DICT|INTERRES
     7    4    5 1    
     8    4   75 1    
     9    5    6 1    
    10    5   35 1    
    11    5   76 1    
    12    6    7 1    
    13    6   77 1    
    14    6   78 1    
    15    7    8 1    
    16    8    9 1    
    17    8   79 1    
    18    8   80 1    
    19    9   10 ar   
    20    9   14 ar   
    21   10   11 ar   
    22   10   81 1    
    23   11   12 ar   
    24   11   71 1    
    25   12   13 ar   
    26   12   82 1    
    27   13   14 ar   
    28   13   15 1    
    29   14   83 1    
    30   15   16 1    
    31   15   84 1    
    32   15   85 1    
    33   16   17 1    
    34   17   18 1    
    35   17   86 1    
    36   17   87 1    
    37   18   19 1    
    38   18   37 1    
    39   18   88 1    
    40   19   20 am   BACKBONE|DICT|INTERRES
    41   19   89 1    
    42   20   21 2    
    43   20   22 1    
    44   22   23 1    
    45   22   24 1    
    46   22   90 1    
    47   23   91 1    
    48   23   92 1    
    49   23   93 1    
    50   24   25 am   BACKBONE|DICT|INTERRES
    51   24   94 1    
    52   25   26 2    
    53   25   27 1    
    54   27   28 1    
    55   27   29 1    
    56   27   95 1    
    57   28   96 1    
    58   28   97 1    
    59   28   98 1    
    60   29   30 am   BACKBONE|DICT|INTERRES
    61   29   99 1    
    62   30   31 2    
    63   30   32 1    
    64   32   33 1    
    65   32   34 1    
    66   32  100 1    
    67   33  101 1    
    68   33  102 1    
    69   33  103 1    
    70   34   35 am   BACKBONE|DICT|INTERRES
    71   34  104 1    
    72   35   36 2    
    73   37   38 2    
    74   37   39 am   BACKBONE|DICT|INTERRES
    75   39   40 1    
    76   39  105 1    
    77   40   41 1    
    78   40   42 1    
    79   40  106 1    
    80   41  107 1    
    81   41  108 1    
    82   41  109 1    
    83   42   43 2    
    84   42   44 am   BACKBONE|DICT|INTERRES
    85   44   45 1    
    86   44  110 1    
    87   45   46 1    
    88   45   47 1    
    89   45  111 1    
    90   46  112 1    
    91   46  113 1    
    92   46  114 1    
    93   47   48 2    
    94   47   49 am   BACKBONE|DICT|INTERRES
    95   49   50 1    
    96   49  115 1    
    97   50   51 1    
    98   50   52 1    
    99   50  116 1    
   100   51  117 1    
   101   51  118 1    
   102   51  119 1    
   103   52   53 2    
   104   52   54 am   BACKBONE|DICT|INTERRES
   105   54   55 1    
   106   54  120 1    
   107   55   56 1    
   108   55   57 1    
   109   55  121 1    
   110   56  122 1    
   111   56  123 1    
   112   56  124 1    
   113   57   58 2    
   114   57   59 am   BACKBONE|DICT|INTERRES
   115   59   60 1    
   116   59  125 1    
   117   60   61 1    
   118   60   62 1    
   119   60  126 1    
   120   61  127 1    
   121   61  128 1    
   122   61  129 1    
   123   62   63 2    
   124   62   64 am   BACKBONE|DICT|INTERRES
   125   64   65 1    
   126   64  130 1    
   127   65   66 1    
   128   65   69 1    
   129   65  131 1    
   130   66   67 am   BACKBONE|DICT|INTERRES
   131   66   68 2    
   132   67  132 1    
   133   67  133 1    
   134   69   70 1    
   135   69  134 1    
   136   69  135 1    
   137   70   71 1    
   138   71  136 1    
   139   71  137 1    
@<TRIPOS>SUBSTRUCTURE
     1 UNK         1 GROUP             0       ****    0 ROOT    
