@<TRIPOS>MOLECULE
3R136
137   139    1
SMALL
USER_CHARGES


@<TRIPOS>ATOM
      1 CA         26.1845   19.2777   -1.3289 C.3       0 UNK        -0.1979 
      2 C          27.4155   20.1414   -1.5620 C.2       0 UNK         0.4864 
      3 O          28.0598   20.0191   -2.6052 O.2       0 UNK        -0.5359 
      4 N          27.7512   21.0075   -0.5968 N.am      1 UNK        -0.4318 
      5 CA         28.8606   21.9605   -0.6802 C.3       1 UNK         0.0824 
      6 C6         29.2015   22.5372    0.7164 C.3       12 UNK        -0.0944 
      7 S7         30.8069   23.4105    0.7455 S.3       12 UNK        -0.2672 
      8 C8         31.7544   22.4416    1.9639 C.3       12 UNK         0.0333 
      9 C9         31.5806   22.9798    3.3787 C.ar      12 UNK        -0.0807 
     10 C10        32.6525   23.5910    4.0356 C.ar      12 UNK        -0.0894 
     11 C11        32.5104   24.0731    5.3417 C.ar      12 UNK        -0.0804 
     12 C12        31.2729   23.9578    5.9850 C.ar      12 UNK        -0.0824 
     13 C13        30.1959   23.3353    5.3451 C.ar      12 UNK        -0.0762 
     14 C14        30.3623   22.8405    4.0481 C.ar      12 UNK        -0.0782 
     15 C15        28.8719   23.1347    6.0729 C.3       12 UNK         0.0230 
     16 S16        27.4418   23.7263    5.1092 S.3       12 UNK        -0.2608 
     17 C17        27.4845   25.5224    5.4270 C.3       12 UNK        -0.0989 
     18 CA         28.2257   26.3532    4.3392 C.3       5 UNK         0.0716 
     19 N          27.8143   26.0448    2.9630 N.am      5 UNK        -0.4135 
     20 C          26.5953   26.1980    2.4245 C.2       4 UNK         0.5031 
     21 O          25.6037   26.5558    3.0627 O.2       4 UNK        -0.5229 
     22 CA         26.4737   25.9360    0.9058 C.3       4 UNK         0.0329 
     23 CB         25.3253   26.7424    0.2640 C.3       4 UNK        -0.2001 
     24 N          27.7186   26.1476    0.1491 N.am      4 UNK        -0.4303 
     25 C          28.4700   27.2619    0.1164 C.2       3 UNK         0.5044 
     26 O          28.2083   28.2715    0.7679 O.2       3 UNK        -0.5152 
     27 CA         29.7550   27.2468   -0.7317 C.3       3 UNK         0.0319 
     28 CB         30.9935   27.3164    0.1779 C.3       3 UNK        -0.2001 
     29 N          29.8642   26.0692   -1.5949 N.am      3 UNK        -0.4354 
     30 C          29.2650   25.9388   -2.7876 C.2       2 UNK         0.4964 
     31 O          28.6158   26.8323   -3.3311 O.2       2 UNK        -0.5047 
     32 CA         29.3857   24.5670   -3.4778 C.3       2 UNK         0.0288 
     33 CB         30.5943   24.5456   -4.4277 C.3       2 UNK        -0.2113 
     34 N          29.4886   23.4475   -2.5341 N.am      2 UNK        -0.4145 
     35 C          28.5233   23.0867   -1.6763 C.2       1 UNK         0.5006 
     36 O          27.4275   23.6483   -1.6029 O.2       1 UNK        -0.5103 
     37 C          28.1761   27.8687    4.6691 C.2       5 UNK         0.5055 
     38 O          28.2394   28.2204    5.8508 O.2       5 UNK        -0.5220 
     39 N          28.0507   28.7477    3.6614 N.am      6 UNK        -0.4450 
     40 CA         27.8900   30.1872    3.8519 C.3       6 UNK         0.0367 
     41 CB         27.2055   30.8013    2.6196 C.3       6 UNK        -0.1929 
     42 C          29.2366   30.8713    4.1166 C.2       6 UNK         0.5070 
     43 O          30.1577   30.7560    3.3031 O.2       6 UNK        -0.5237 
     44 N          29.2899   31.6485    5.2065 N.am      7 UNK        -0.4739 
     45 CA         30.4432   32.4558    5.6241 C.3       7 UNK         0.0276 
     46 CB         30.1630   33.0464    7.0153 C.3       7 UNK        -0.1927 
     47 C          30.8260   33.5726    4.6317 C.2       7 UNK         0.5013 
     48 O          31.9585   34.0540    4.6645 O.2       7 UNK        -0.5193 
     49 N          29.8778   33.9680    3.7718 N.am      8 UNK        -0.4253 
     50 CA         30.0921   34.9024    2.6672 C.3       8 UNK         0.0242 
     51 CB         28.7414   35.5176    2.2650 C.3       8 UNK        -0.2000 
     52 C          30.7643   34.2467    1.4461 C.2       8 UNK         0.4948 
     53 O          31.3614   34.9672    0.6451 O.2       8 UNK        -0.5275 
     54 N          30.6411   32.9184    1.3036 N.am      9 UNK        -0.4246 
     55 CA         31.1796   32.1546    0.1772 C.3       9 UNK         0.0261 
     56 CB         30.1698   31.0742   -0.2432 C.3       9 UNK        -0.1959 
     57 C          32.5357   31.5274    0.5246 C.2       9 UNK         0.5033 
     58 O          33.4758   31.6545   -0.2615 O.2       9 UNK        -0.5390 
     59 N          32.6187   30.8734    1.6886 N.am      10 UNK        -0.4215 
     60 CA         33.8245   30.2365    2.2157 C.3       10 UNK         0.0240 
     61 CB         34.0835   28.8862    1.5066 C.3       10 UNK        -0.1982 
     62 C          33.6579   30.1315    3.7368 C.2       10 UNK         0.4970 
     63 O          33.3304   31.1337    4.3694 O.2       10 UNK        -0.4916 
     64 N          33.8621   28.9382    4.3005 N.am      11 UNK        -0.4279 
     65 CA         33.3805   28.5676    5.6353 C.3       11 UNK         0.1003 
     66 C          31.8724   28.2029    5.5846 C.2       11 UNK         0.5709 
     67 N          31.1140   28.5240    6.6241 N.am      11 UNK        -0.7358 
     68 O          31.3903   27.6231    4.6146 O.2       11 UNK        -0.4999 
     69 C69        34.2450   27.4454    6.2666 C.3       12 UNK        -0.0954 
     70 S70        34.5307   25.9992    5.1835 S.3       12 UNK        -0.2268 
     71 C71        33.7146   24.6401    6.0846 C.3       12 UNK         0.0203 
     72 H72        26.4550   18.2226   -1.3597 H         1 UNK         0.0888 
     73 H73        25.7205   19.4805   -0.3638 H         1 UNK         0.0888 
     74 H74        25.4440   19.4630   -2.1066 H         1 UNK         0.0888 
     75 H75        27.1653   21.0846    0.2220 H         1 UNK         0.3017 
     76 H76        29.7316   21.4128   -1.0479 H         1 UNK         0.0873 
     77 H77        28.4218   23.2138    1.0720 H         1 UNK         0.0745 
     78 H78        29.2316   21.7183    1.4351 H         1 UNK         0.0745 
     79 H79        31.4690   21.3896    1.9247 H         1 UNK         0.0705 
     80 H80        32.8062   22.4751    1.6758 H         1 UNK         0.0705 
     81 H81        33.6089   23.6770    3.5381 H         1 UNK         0.1334 
     82 H82        31.1588   24.3193    6.9979 H         1 UNK         0.1417 
     83 H83        29.5340   22.3452    3.5640 H         1 UNK         0.1562 
     84 H84        28.8798   23.6147    7.0526 H         1 UNK         0.0748 
     85 H85        28.7432   22.0677    6.2594 H         1 UNK         0.0748 
     86 H86        27.9354   25.6914    6.4066 H         1 UNK         0.0940 
     87 H87        26.4512   25.8614    5.5194 H         1 UNK         0.0940 
     88 H88        29.2791   26.0759    4.3890 H         1 UNK         0.0703 
     89 H89        28.5598   25.7464    2.3518 H         1 UNK         0.3081 
     90 H90        26.2324   24.8770    0.8023 H         1 UNK         0.0719 
     91 H91        25.4750   27.8166    0.3793 H         1 UNK         0.0809 
     92 H92        25.2386   26.5278   -0.8012 H         1 UNK         0.0809 
     93 H93        24.3662   26.4956    0.7209 H         1 UNK         0.0809 
     94 H94        27.9878   25.3763   -0.4492 H         1 UNK         0.2990 
     95 H95        29.7405   28.1431   -1.3549 H         1 UNK         0.0690 
     96 H96        31.9109   27.3836   -0.4070 H         1 UNK         0.0788 
     97 H97        31.0718   26.4447    0.8283 H         1 UNK         0.0788 
     98 H98        30.9587   28.1948    0.8237 H         1 UNK         0.0788 
     99 H99        30.3870   25.2859   -1.2281 H         1 UNK         0.2993 
    100 H100       28.4797   24.4208   -4.0704 H         1 UNK         0.0949 
    101 H101       30.5313   25.3545   -5.1571 H         1 UNK         0.0767 
    102 H102       31.5352   24.6653   -3.8888 H         1 UNK         0.0767 
    103 H103       30.6430   23.6111   -4.9872 H         1 UNK         0.0767 
    104 H104       30.3637   22.9426   -2.5243 H         1 UNK         0.3013 
    105 H105       28.0750   28.4238    2.6980 H         1 UNK         0.3121 
    106 H106       27.2300   30.3478    4.7076 H         1 UNK         0.0774 
    107 H107       27.8244   30.7174    1.7263 H         1 UNK         0.0815 
    108 H108       26.9997   31.8612    2.7732 H         1 UNK         0.0815 
    109 H109       26.2537   30.3126    2.4104 H         1 UNK         0.0815 
    110 H110       28.4813   31.6827    5.8115 H         1 UNK         0.2987 
    111 H111       31.2979   31.7842    5.7094 H         1 UNK         0.0949 
    112 H112       31.0166   33.6246    7.3723 H         1 UNK         0.0806 
    113 H113       29.2995   33.7127    7.0057 H         1 UNK         0.0806 
    114 H114       29.9770   32.2625    7.7498 H         1 UNK         0.0806 
    115 H115       28.9650   33.5442    3.8461 H         1 UNK         0.3010 
    116 H116       30.7452   35.7081    3.0100 H         1 UNK         0.0829 
    117 H117       28.2783   36.0411    3.1017 H         1 UNK         0.0813 
    118 H118       28.8682   36.2445    1.4613 H         1 UNK         0.0813 
    119 H119       28.0402   34.7607    1.9110 H         1 UNK         0.0813 
    120 H120       30.2066   32.3801    2.0443 H         1 UNK         0.3038 
    121 H121       31.3283   32.8138   -0.6810 H         1 UNK         0.0769 
    122 H122       29.9588   30.3778    0.5682 H         1 UNK         0.0811 
    123 H123       30.5505   30.4922   -1.0832 H         1 UNK         0.0811 
    124 H124       29.2238   31.5155   -0.5566 H         1 UNK         0.0811 
    125 H125       31.8055   30.8428    2.3030 H         1 UNK         0.3204 
    126 H126       34.6761   30.8960    2.0370 H         1 UNK         0.0748 
    127 H127       35.0247   28.4423    1.8335 H         1 UNK         0.0771 
    128 H128       33.2884   28.1660    1.7016 H         1 UNK         0.0771 
    129 H129       34.1556   29.0113    0.4261 H         1 UNK         0.0771 
    130 H130       34.1073   28.1582    3.7088 H         1 UNK         0.2980 
    131 H131       33.4788   29.4405    6.2842 H         1 UNK         0.0545 
    132 H132       30.1213   28.3274    6.5702 H         1 UNK         0.3459 
    133 H133       31.4934   28.9903    7.4322 H         1 UNK         0.3459 
    134 H134       35.2272   27.8549    6.5065 H         1 UNK         0.0616 
    135 H135       33.8255   27.1363    7.2248 H         1 UNK         0.0616 
    136 H136       34.4417   23.8380    6.2175 H         1 UNK         0.0634 
    137 H137       33.4353   24.9566    7.0898 H         1 UNK         0.0634 
@<TRIPOS>BOND
     1    1    2 1    
     2    1   72 1    
     3    1   73 1    
     4    1   74 1    
     5    2    3 2    
     6    2    4 am   BACKBONE|DICT|INTERRES
     7    4    5 1    
     8    4   75 1    
     9    5    6 1    
    10    5   35 1    
    11    5   76 1    
    12    6    7 1    
    13    6   77 1    
    14    6   78 1    
    15    7    8 1    
    16    8    9 1    
    17    8   79 1    
    18    8   80 1    
    19    9   10 ar   
    20    9   14 ar   
    21   10   11 ar   
    22   10   81 1    
    23   11   12 ar   
    24   11   71 1    
    25   12   13 ar   
    26   12   82 1    
    27   13   14 ar   
    28   13   15 1    
    29   14   83 1    
    30   15   16 1    
    31   15   84 1    
    32   15   85 1    
    33   16   17 1    
    34   17   18 1    
    35   17   86 1    
    36   17   87 1    
    37   18   19 1    
    38   18   37 1    
    39   18   88 1    
    40   19   20 am   BACKBONE|DICT|INTERRES
    41   19   89 1    
    42   20   21 2    
    43   20   22 1    
    44   22   23 1    
    45   22   24 1    
    46   22   90 1    
    47   23   91 1    
    48   23   92 1    
    49   23   93 1    
    50   24   25 am   BACKBONE|DICT|INTERRES
    51   24   94 1    
    52   25   26 2    
    53   25   27 1    
    54   27   28 1    
    55   27   29 1    
    56   27   95 1    
    57   28   96 1    
    58   28   97 1    
    59   28   98 1    
    60   29   30 am   BACKBONE|DICT|INTERRES
    61   29   99 1    
    62   30   31 2    
    63   30   32 1    
    64   32   33 1    
    65   32   34 1    
    66   32  100 1    
    67   33  101 1    
    68   33  102 1    
    69   33  103 1    
    70   34   35 am   BACKBONE|DICT|INTERRES
    71   34  104 1    
    72   35   36 2    
    73   37   38 2    
    74   37   39 am   BACKBONE|DICT|INTERRES
    75   39   40 1    
    76   39  105 1    
    77   40   41 1    
    78   40   42 1    
    79   40  106 1    
    80   41  107 1    
    81   41  108 1    
    82   41  109 1    
    83   42   43 2    
    84   42   44 am   BACKBONE|DICT|INTERRES
    85   44   45 1    
    86   44  110 1    
    87   45   46 1    
    88   45   47 1    
    89   45  111 1    
    90   46  112 1    
    91   46  113 1    
    92   46  114 1    
    93   47   48 2    
    94   47   49 am   BACKBONE|DICT|INTERRES
    95   49   50 1    
    96   49  115 1    
    97   50   51 1    
    98   50   52 1    
    99   50  116 1    
   100   51  117 1    
   101   51  118 1    
   102   51  119 1    
   103   52   53 2    
   104   52   54 am   BACKBONE|DICT|INTERRES
   105   54   55 1    
   106   54  120 1    
   107   55   56 1    
   108   55   57 1    
   109   55  121 1    
   110   56  122 1    
   111   56  123 1    
   112   56  124 1    
   113   57   58 2    
   114   57   59 am   BACKBONE|DICT|INTERRES
   115   59   60 1    
   116   59  125 1    
   117   60   61 1    
   118   60   62 1    
   119   60  126 1    
   120   61  127 1    
   121   61  128 1    
   122   61  129 1    
   123   62   63 2    
   124   62   64 am   BACKBONE|DICT|INTERRES
   125   64   65 1    
   126   64  130 1    
   127   65   66 1    
   128   65   69 1    
   129   65  131 1    
   130   66   67 am   BACKBONE|DICT|INTERRES
   131   66   68 2    
   132   67  132 1    
   133   67  133 1    
   134   69   70 1    
   135   69  134 1    
   136   69  135 1    
   137   70   71 1    
   138   71  136 1    
   139   71  137 1    
@<TRIPOS>SUBSTRUCTURE
     1 UNK         1 GROUP             0       ****    0 ROOT    
