@<TRIPOS>MOLECULE
3R136
137   139    1
SMALL
USER_CHARGES


@<TRIPOS>ATOM
      1 CA         29.6600   19.4427   -3.6189 C.3       0 UNK        -0.1979 
      2 C          30.8311   20.0692   -2.8767 C.2       0 UNK         0.4864 
      3 O          31.7875   20.5163   -3.5111 O.2       0 UNK        -0.5359 
      4 N          30.7631   20.0978   -1.5392 N.am      1 UNK        -0.4318 
      5 CA         31.7585   20.6981   -0.6420 C.3       1 UNK         0.0824 
      6 C6         31.5513   20.2827    0.8419 C.3       12 UNK        -0.0944 
      7 S7         29.8039   20.2510    1.3828 S.3       12 UNK        -0.2672 
      8 C8         29.9128   20.8243    3.1088 C.3       12 UNK         0.0333 
      9 C9         29.9132   22.3428    3.2181 C.ar      12 UNK        -0.0807 
     10 C10        30.9688   23.0127    3.8453 C.ar      12 UNK        -0.0894 
     11 C11        30.9529   24.4064    3.9760 C.ar      12 UNK        -0.0804 
     12 C12        29.8700   25.1257    3.4589 C.ar      12 UNK        -0.0824 
     13 C13        28.8145   24.4700    2.8210 C.ar      12 UNK        -0.0762 
     14 C14        28.8366   23.0782    2.7144 C.ar      12 UNK        -0.0782 
     15 C15        27.6785   25.2585    2.1924 C.3       12 UNK         0.0230 
     16 S16        26.2311   25.3932    3.2877 S.3       12 UNK        -0.2608 
     17 C17        26.6808   26.6911    4.4979 C.3       12 UNK        -0.0989 
     18 CA         27.2786   27.9966    3.9064 C.3       5 UNK         0.0716 
     19 N          26.5916   28.4370    2.6901 N.am      5 UNK        -0.4135 
     20 C          26.9349   29.4727    1.9123 C.2       4 UNK         0.5031 
     21 O          27.8357   30.2761    2.1814 O.2       4 UNK        -0.5229 
     22 CA         26.1641   29.5701    0.5814 C.3       4 UNK         0.0329 
     23 CB         26.5327   30.8215   -0.2422 C.3       4 UNK        -0.2001 
     24 N          26.3236   28.3453   -0.2210 N.am      4 UNK        -0.4303 
     25 C          27.4720   27.8562   -0.7159 C.2       3 UNK         0.5044 
     26 O          28.5649   28.4217   -0.6303 O.2       3 UNK        -0.5152 
     27 CA         27.3923   26.5003   -1.4309 C.3       3 UNK         0.0319 
     28 CB         26.8827   26.6599   -2.8732 C.3       3 UNK        -0.2001 
     29 N          28.7371   25.9306   -1.4494 N.am      3 UNK        -0.4354 
     30 C          29.0605   24.6539   -1.2264 C.2       2 UNK         0.4964 
     31 O          28.2345   23.7462   -1.0938 O.2       2 UNK        -0.5047 
     32 CA         30.5624   24.3465   -1.1172 C.3       2 UNK         0.0288 
     33 CB         31.2351   25.1745    0.0026 C.3       2 UNK        -0.2113 
     34 N          30.7231   22.9114   -0.8864 N.am      2 UNK        -0.4145 
     35 C          31.8709   22.2268   -0.8166 C.2       1 UNK         0.5006 
     36 O          32.9878   22.7385   -0.9172 O.2       1 UNK        -0.5103 
     37 C          27.3300   29.1148    4.9639 C.2       5 UNK         0.5055 
     38 O          26.2761   29.5718    5.4097 O.2       5 UNK        -0.5220 
     39 N          28.5517   29.5559    5.2979 N.am      6 UNK        -0.4450 
     40 CA         28.8993   30.6704    6.1915 C.3       6 UNK         0.0367 
     41 CB         28.4042   30.4064    7.6288 C.3       6 UNK        -0.1929 
     42 C          28.4866   32.0724    5.6896 C.2       6 UNK         0.5070 
     43 O          28.7705   33.0527    6.3792 O.2       6 UNK        -0.5237 
     44 N          27.8555   32.1647    4.5115 N.am      7 UNK        -0.4739 
     45 CA         27.4528   33.4173    3.8718 C.3       7 UNK         0.0276 
     46 CB         26.0588   33.2513    3.2452 C.3       7 UNK        -0.1927 
     47 C          28.4846   33.8515    2.8223 C.2       7 UNK         0.5013 
     48 O          28.8515   35.0271    2.7946 O.2       7 UNK        -0.5193 
     49 N          28.9492   32.9014    1.9992 N.am      8 UNK        -0.4253 
     50 CA         29.9995   33.1145    0.9983 C.3       8 UNK         0.0242 
     51 CB         29.3763   33.5120   -0.3524 C.3       8 UNK        -0.2000 
     52 C          30.9611   31.9213    0.8566 C.2       8 UNK         0.4948 
     53 O          31.9947   32.0803    0.2039 O.2       8 UNK        -0.5275 
     54 N          30.6454   30.7647    1.4614 N.am      9 UNK        -0.4246 
     55 CA         31.5366   29.6027    1.5424 C.3       9 UNK         0.0261 
     56 CB         30.7739   28.4233    2.1628 C.3       9 UNK        -0.1959 
     57 C          32.7967   29.8873    2.3791 C.2       9 UNK         0.5033 
     58 O          32.7651   30.7383    3.2720 O.2       9 UNK        -0.5390 
     59 N          33.8623   29.1166    2.1199 N.am      10 UNK        -0.4215 
     60 CA         35.1720   29.2200    2.7782 C.3       10 UNK         0.0240 
     61 CB         36.1347   28.2001    2.1478 C.3       10 UNK        -0.1982 
     62 C          35.1485   29.0559    4.3105 C.2       10 UNK         0.4970 
     63 O          36.0129   29.6186    4.9837 O.2       10 UNK        -0.4916 
     64 N          34.1653   28.3099    4.8302 N.am      11 UNK        -0.4279 
     65 CA         33.8856   28.1783    6.2674 C.3       11 UNK         0.1003 
     66 C          33.1522   29.3959    6.9072 C.2       11 UNK         0.5709 
     67 N          32.7427   30.4118    6.1555 N.am      11 UNK        -0.7358 
     68 O          32.9731   29.4317    8.1223 O.2       11 UNK        -0.4999 
     69 C69        33.2120   26.8212    6.6035 C.3       12 UNK        -0.0954 
     70 S70        31.6435   26.5040    5.7200 S.3       12 UNK        -0.2268 
     71 C71        32.1320   25.1167    4.6369 C.3       12 UNK         0.0203 
     72 H72        30.0029   18.5995   -4.2179 H         1 UNK         0.0888 
     73 H73        28.8901   19.0827   -2.9364 H         1 UNK         0.0888 
     74 H74        29.2053   20.1737   -4.2870 H         1 UNK         0.0888 
     75 H75        29.9534   19.7131   -1.0717 H         1 UNK         0.3017 
     76 H76        32.7278   20.2966   -0.9467 H         1 UNK         0.0873 
     77 H77        32.1370   20.9165    1.5114 H         1 UNK         0.0745 
     78 H78        31.9429   19.2744    0.9847 H         1 UNK         0.0745 
     79 H79        30.7940   20.3898    3.5835 H         1 UNK         0.0705 
     80 H80        29.0514   20.4396    3.6563 H         1 UNK         0.0705 
     81 H81        31.8043   22.4470    4.2347 H         1 UNK         0.1334 
     82 H82        29.8624   26.1999    3.5359 H         1 UNK         0.1417 
     83 H83        28.0212   22.5655    2.2219 H         1 UNK         0.1562 
     84 H84        27.3543   24.7478    1.2856 H         1 UNK         0.0748 
     85 H85        28.0245   26.2380    1.8654 H         1 UNK         0.0748 
     86 H86        27.3769   26.2564    5.2181 H         1 UNK         0.0940 
     87 H87        25.7716   26.9108    5.0618 H         1 UNK         0.0940 
     88 H88        28.3020   27.7811    3.6069 H         1 UNK         0.0703 
     89 H89        25.8275   27.8469    2.3955 H         1 UNK         0.3081 
     90 H90        25.1065   29.6473    0.8382 H         1 UNK         0.0719 
     91 H91        27.5832   30.8164   -0.5285 H         1 UNK         0.0809 
     92 H92        25.9397   30.8831   -1.1545 H         1 UNK         0.0809 
     93 H93        26.3542   31.7366    0.3215 H         1 UNK         0.0809 
     94 H94        25.4800   27.8069   -0.3638 H         1 UNK         0.2990 
     95 H95        26.7150   25.8520   -0.8710 H         1 UNK         0.0690 
     96 H96        26.8417   25.6983   -3.3853 H         1 UNK         0.0788 
     97 H97        27.5246   27.3219   -3.4560 H         1 UNK         0.0788 
     98 H98        25.8762   27.0796   -2.8917 H         1 UNK         0.0788 
     99 H99        29.4680   26.6315   -1.4738 H         1 UNK         0.2993 
    100 H100       31.0197   24.5939   -2.0771 H         1 UNK         0.0949 
    101 H101       30.9256   24.8286    0.9858 H         1 UNK         0.0767 
    102 H102       32.3211   25.1004   -0.0412 H         1 UNK         0.0767 
    103 H103       30.9964   26.2359   -0.0659 H         1 UNK         0.0767 
    104 H104       29.8430   22.4152   -0.8043 H         1 UNK         0.3013 
    105 H105       29.3471   29.1135    4.8614 H         1 UNK         0.3121 
    106 H106       29.9885   30.6849    6.2246 H         1 UNK         0.0774 
    107 H107       28.7915   31.1568    8.3191 H         1 UNK         0.0815 
    108 H108       27.3167   30.4372    7.6975 H         1 UNK         0.0815 
    109 H109       28.7383   29.4342    7.9910 H         1 UNK         0.0815 
    110 H110       27.6831   31.3140    3.9897 H         1 UNK         0.2987 
    111 H111       27.3866   34.2130    4.6174 H         1 UNK         0.0949 
    112 H112       25.7518   34.1605    2.7265 H         1 UNK         0.0806 
    113 H113       26.0289   32.4359    2.5242 H         1 UNK         0.0806 
    114 H114       25.3086   33.0447    4.0086 H         1 UNK         0.0806 
    115 H115       28.5549   31.9668    2.0662 H         1 UNK         0.3010 
    116 H116       30.6294   33.9435    1.3287 H         1 UNK         0.0829 
    117 H117       28.7611   34.4069   -0.2577 H         1 UNK         0.0813 
    118 H118       30.1502   33.7301   -1.0894 H         1 UNK         0.0813 
    119 H119       28.7544   32.7193   -0.7627 H         1 UNK         0.0813 
    120 H120       29.7481   30.6687    1.9198 H         1 UNK         0.3038 
    121 H121       31.8353   29.3382    0.5258 H         1 UNK         0.0769 
    122 H122       29.8580   28.2053    1.6159 H         1 UNK         0.0811 
    123 H123       30.5112   28.6256    3.2004 H         1 UNK         0.0811 
    124 H124       31.3797   27.5165    2.1503 H         1 UNK         0.0811 
    125 H125       33.7905   28.4329    1.3798 H         1 UNK         0.3204 
    126 H126       35.5548   30.2219    2.5727 H         1 UNK         0.0748 
    127 H127       37.1268   28.2693    2.5967 H         1 UNK         0.0771 
    128 H128       35.7857   27.1759    2.2862 H         1 UNK         0.0771 
    129 H129       36.2547   28.3739    1.0782 H         1 UNK         0.0771 
    130 H130       33.4863   27.8979    4.2099 H         1 UNK         0.2980 
    131 H131       34.8525   28.1572    6.7737 H         1 UNK         0.0545 
    132 H132       32.3060   31.1991    6.6050 H         1 UNK         0.3459 
    133 H133       32.8789   30.4226    5.1485 H         1 UNK         0.3459 
    134 H134       33.0175   26.7443    7.6747 H         1 UNK         0.0616 
    135 H135       33.9158   26.0166    6.3868 H         1 UNK         0.0616 
    136 H136       32.7023   24.3998    5.2296 H         1 UNK         0.0634 
    137 H137       32.8030   25.4872    3.8610 H         1 UNK         0.0634 
@<TRIPOS>BOND
     1    1    2 1    
     2    1   72 1    
     3    1   73 1    
     4    1   74 1    
     5    2    3 2    
     6    2    4 am   BACKBONE|DICT|INTERRES
     7    4    5 1    
     8    4   75 1    
     9    5    6 1    
    10    5   35 1    
    11    5   76 1    
    12    6    7 1    
    13    6   77 1    
    14    6   78 1    
    15    7    8 1    
    16    8    9 1    
    17    8   79 1    
    18    8   80 1    
    19    9   10 ar   
    20    9   14 ar   
    21   10   11 ar   
    22   10   81 1    
    23   11   12 ar   
    24   11   71 1    
    25   12   13 ar   
    26   12   82 1    
    27   13   14 ar   
    28   13   15 1    
    29   14   83 1    
    30   15   16 1    
    31   15   84 1    
    32   15   85 1    
    33   16   17 1    
    34   17   18 1    
    35   17   86 1    
    36   17   87 1    
    37   18   19 1    
    38   18   37 1    
    39   18   88 1    
    40   19   20 am   BACKBONE|DICT|INTERRES
    41   19   89 1    
    42   20   21 2    
    43   20   22 1    
    44   22   23 1    
    45   22   24 1    
    46   22   90 1    
    47   23   91 1    
    48   23   92 1    
    49   23   93 1    
    50   24   25 am   BACKBONE|DICT|INTERRES
    51   24   94 1    
    52   25   26 2    
    53   25   27 1    
    54   27   28 1    
    55   27   29 1    
    56   27   95 1    
    57   28   96 1    
    58   28   97 1    
    59   28   98 1    
    60   29   30 am   BACKBONE|DICT|INTERRES
    61   29   99 1    
    62   30   31 2    
    63   30   32 1    
    64   32   33 1    
    65   32   34 1    
    66   32  100 1    
    67   33  101 1    
    68   33  102 1    
    69   33  103 1    
    70   34   35 am   BACKBONE|DICT|INTERRES
    71   34  104 1    
    72   35   36 2    
    73   37   38 2    
    74   37   39 am   BACKBONE|DICT|INTERRES
    75   39   40 1    
    76   39  105 1    
    77   40   41 1    
    78   40   42 1    
    79   40  106 1    
    80   41  107 1    
    81   41  108 1    
    82   41  109 1    
    83   42   43 2    
    84   42   44 am   BACKBONE|DICT|INTERRES
    85   44   45 1    
    86   44  110 1    
    87   45   46 1    
    88   45   47 1    
    89   45  111 1    
    90   46  112 1    
    91   46  113 1    
    92   46  114 1    
    93   47   48 2    
    94   47   49 am   BACKBONE|DICT|INTERRES
    95   49   50 1    
    96   49  115 1    
    97   50   51 1    
    98   50   52 1    
    99   50  116 1    
   100   51  117 1    
   101   51  118 1    
   102   51  119 1    
   103   52   53 2    
   104   52   54 am   BACKBONE|DICT|INTERRES
   105   54   55 1    
   106   54  120 1    
   107   55   56 1    
   108   55   57 1    
   109   55  121 1    
   110   56  122 1    
   111   56  123 1    
   112   56  124 1    
   113   57   58 2    
   114   57   59 am   BACKBONE|DICT|INTERRES
   115   59   60 1    
   116   59  125 1    
   117   60   61 1    
   118   60   62 1    
   119   60  126 1    
   120   61  127 1    
   121   61  128 1    
   122   61  129 1    
   123   62   63 2    
   124   62   64 am   BACKBONE|DICT|INTERRES
   125   64   65 1    
   126   64  130 1    
   127   65   66 1    
   128   65   69 1    
   129   65  131 1    
   130   66   67 am   BACKBONE|DICT|INTERRES
   131   66   68 2    
   132   67  132 1    
   133   67  133 1    
   134   69   70 1    
   135   69  134 1    
   136   69  135 1    
   137   70   71 1    
   138   71  136 1    
   139   71  137 1    
@<TRIPOS>SUBSTRUCTURE
     1 UNK         1 GROUP             0       ****    0 ROOT    
