@<TRIPOS>MOLECULE
3R136
137   139    1
SMALL
USER_CHARGES


@<TRIPOS>ATOM
      1 CA         26.1892   19.5633    2.0466 C.3       0 UNK        -0.1979 
      2 C          27.2893   20.5913    1.8266 C.2       0 UNK         0.4864 
      3 O          27.8038   21.1367    2.8026 O.2       0 UNK        -0.5359 
      4 N          27.6218   20.8580    0.5537 N.am      1 UNK        -0.4318 
      5 CA         28.6461   21.7565   -0.0128 C.3       1 UNK         0.0824 
      6 C6         30.0988   21.2084    0.0460 C.3       12 UNK        -0.0944 
      7 S7         30.8767   21.1153    1.6975 S.3       12 UNK        -0.2672 
      8 C8         32.3911   22.1014    1.4760 C.3       12 UNK         0.0333 
      9 C9         32.1547   23.5851    1.7199 C.ar      12 UNK        -0.0807 
     10 C10        32.2953   24.1105    3.0059 C.ar      12 UNK        -0.0894 
     11 C11        32.1370   25.4793    3.2344 C.ar      12 UNK        -0.0804 
     12 C12        31.8128   26.3266    2.1686 C.ar      12 UNK        -0.0824 
     13 C13        31.6528   25.8124    0.8733 C.ar      12 UNK        -0.0762 
     14 C14        31.8330   24.4404    0.6628 C.ar      12 UNK        -0.0782 
     15 C15        31.2750   26.6721   -0.3350 C.3       12 UNK         0.0230 
     16 S16        31.4311   28.4827   -0.1372 S.3       12 UNK        -0.2608 
     17 C17        29.8267   28.9609    0.5909 C.3       12 UNK        -0.0989 
     18 CA         28.7731   29.2969   -0.4983 C.3       5 UNK         0.0716 
     19 N          28.2230   28.0859   -1.1101 N.am      5 UNK        -0.4135 
     20 C          27.7197   28.0055   -2.3485 C.2       4 UNK         0.5031 
     21 O          27.7365   28.9306   -3.1611 O.2       4 UNK        -0.5229 
     22 CA         27.0809   26.6628   -2.7475 C.3       4 UNK         0.0329 
     23 CB         28.1216   25.7498   -3.4158 C.3       4 UNK        -0.2001 
     24 N          26.4758   25.9682   -1.6059 N.am      4 UNK        -0.4303 
     25 C          25.3231   26.3450   -1.0274 C.2       3 UNK         0.5044 
     26 O          24.6168   27.2591   -1.4525 O.2       3 UNK        -0.5152 
     27 CA         24.8857   25.6083    0.2551 C.3       3 UNK         0.0319 
     28 CB         23.8812   24.4952   -0.0827 C.3       3 UNK        -0.2001 
     29 N          25.9909   25.0361    1.0285 N.am      3 UNK        -0.4354 
     30 C          27.0123   25.7272    1.5548 C.2       2 UNK         0.4964 
     31 O          27.1040   26.9520    1.4941 O.2       2 UNK        -0.5047 
     32 CA         28.1590   24.9199    2.1852 C.3       2 UNK         0.0288 
     33 CB         28.0081   24.8532    3.7116 C.3       2 UNK        -0.2113 
     34 N          28.2985   23.5635    1.6449 N.am      2 UNK        -0.4145 
     35 C          28.5415   23.2504    0.3661 C.2       1 UNK         0.5006 
     36 O          28.6410   24.0977   -0.5239 O.2       1 UNK        -0.5103 
     37 C          27.6373   30.1798    0.0593 C.2       5 UNK         0.5055 
     38 O          27.7365   31.4045   -0.0239 O.2       5 UNK        -0.5220 
     39 N          26.5861   29.5448    0.6060 N.am      6 UNK        -0.4450 
     40 CA         25.3976   30.1381    1.2383 C.3       6 UNK         0.0367 
     41 CB         24.5715   30.9515    0.2203 C.3       6 UNK        -0.1929 
     42 C          25.7277   30.9325    2.5192 C.2       6 UNK         0.5070 
     43 O          24.9748   31.8259    2.9096 O.2       6 UNK        -0.5237 
     44 N          26.8508   30.5759    3.1468 N.am      7 UNK        -0.4739 
     45 CA         27.4994   31.1761    4.3060 C.3       7 UNK         0.0276 
     46 CB         27.9109   32.6345    4.0055 C.3       7 UNK        -0.1927 
     47 C          28.7375   30.3138    4.5952 C.2       7 UNK         0.5013 
     48 O          29.0237   29.3845    3.8326 O.2       7 UNK        -0.5193 
     49 N          29.4710   30.6432    5.6668 N.am      8 UNK        -0.4253 
     50 CA         30.7673   30.0301    5.9719 C.3       8 UNK         0.0242 
     51 CB         31.2362   30.4534    7.3734 C.3       8 UNK        -0.2000 
     52 C          31.8270   30.3683    4.9094 C.2       8 UNK         0.4948 
     53 O          32.5253   29.4677    4.4475 O.2       8 UNK        -0.5275 
     54 N          31.9050   31.6520    4.5216 N.am      9 UNK        -0.4246 
     55 CA         32.8089   32.2050    3.5053 C.3       9 UNK         0.0261 
     56 CB         32.3307   31.7936    2.0930 C.3       9 UNK        -0.1959 
     57 C          34.2778   31.8436    3.8053 C.2       9 UNK         0.5033 
     58 O          34.8273   32.3395    4.7910 O.2       9 UNK        -0.5390 
     59 N          34.8638   30.9492    2.9973 N.am      10 UNK        -0.4215 
     60 CA         36.2029   30.3827    3.1800 C.3       10 UNK         0.0240 
     61 CB         36.5434   29.5017    1.9668 C.3       10 UNK        -0.1982 
     62 C          36.3801   29.5851    4.4875 C.2       10 UNK         0.4970 
     63 O          37.5082   29.4894    4.9732 O.2       10 UNK        -0.4916 
     64 N          35.2854   29.0434    5.0386 N.am      11 UNK        -0.4279 
     65 CA         35.2567   28.3593    6.3405 C.3       11 UNK         0.1003 
     66 C          35.2421   29.3307    7.5579 C.2       11 UNK         0.5709 
     67 N          35.1256   30.6426    7.3755 N.am      11 UNK        -0.7358 
     68 O          35.3479   28.8835    8.6974 O.2       11 UNK        -0.4999 
     69 C69        34.1042   27.3205    6.4375 C.3       12 UNK        -0.0954 
     70 S70        34.1038   26.1333    5.0508 S.3       12 UNK        -0.2268 
     71 C71        32.3331   26.0409    4.6332 C.3       12 UNK         0.0203 
     72 H72        25.3550   20.0157    2.5822 H         1 UNK         0.0888 
     73 H73        25.8105   19.1596    1.1078 H         1 UNK         0.0888 
     74 H74        26.5674   18.7338    2.6434 H         1 UNK         0.0888 
     75 H75        27.1011   20.3629   -0.1572 H         1 UNK         0.3017 
     76 H76        28.3924   21.7494   -1.0746 H         1 UNK         0.0873 
     77 H77        30.1147   20.2007   -0.3718 H         1 UNK         0.0745 
     78 H78        30.7330   21.7966   -0.6188 H         1 UNK         0.0745 
     79 H79        32.8090   21.9348    0.4821 H         1 UNK         0.0705 
     80 H80        33.1430   21.7353    2.1768 H         1 UNK         0.0705 
     81 H81        32.5509   23.4570    3.8291 H         1 UNK         0.1334 
     82 H82        31.6882   27.3833    2.3615 H         1 UNK         0.1417 
     83 H83        31.7178   24.0350   -0.3332 H         1 UNK         0.1562 
     84 H84        30.2607   26.4181   -0.6392 H         1 UNK         0.0748 
     85 H85        31.9168   26.3896   -1.1708 H         1 UNK         0.0748 
     86 H86        30.0199   29.8327    1.2196 H         1 UNK         0.0940 
     87 H87        29.4743   28.1826    1.2699 H         1 UNK         0.0940 
     88 H88        29.2661   29.8855   -1.2756 H         1 UNK         0.0703 
     89 H89        28.1257   27.2858   -0.5015 H         1 UNK         0.3081 
     90 H90        26.2964   26.8717   -3.4783 H         1 UNK         0.0719 
     91 H91        27.6807   24.8008   -3.7212 H         1 UNK         0.0809 
     92 H92        28.5320   26.2195   -4.3107 H         1 UNK         0.0809 
     93 H93        28.9587   25.5324   -2.7517 H         1 UNK         0.0809 
     94 H94        27.0142   25.2113   -1.1973 H         1 UNK         0.2990 
     95 H95        24.3855   26.3400    0.8931 H         1 UNK         0.0690 
     96 H96        23.0291   24.8931   -0.6359 H         1 UNK         0.0788 
     97 H97        23.4877   24.0271    0.8199 H         1 UNK         0.0788 
     98 H98        24.3334   23.7157   -0.6973 H         1 UNK         0.0788 
     99 H99        26.0013   24.0318    1.1290 H         1 UNK         0.2993 
    100 H100       29.0817   25.4553    1.9599 H         1 UNK         0.0949 
    101 H101       27.1197   24.2928    4.0054 H         1 UNK         0.0767 
    102 H102       28.8746   24.3765    4.1709 H         1 UNK         0.0767 
    103 H103       27.9254   25.8536    4.1396 H         1 UNK         0.0767 
    104 H104       28.2116   22.7828    2.2962 H         1 UNK         0.3013 
    105 H105       26.6663   28.5363    0.7233 H         1 UNK         0.3121 
    106 H106       24.7823   29.2966    1.5603 H         1 UNK         0.0774 
    107 H107       25.0927   31.8555   -0.0956 H         1 UNK         0.0815 
    108 H108       23.6177   31.2608    0.6491 H         1 UNK         0.0815 
    109 H109       24.3499   30.3615   -0.6693 H         1 UNK         0.0815 
    110 H110       27.3859   29.7965    2.7770 H         1 UNK         0.2987 
    111 H111       26.8221   31.1344    5.1609 H         1 UNK         0.0949 
    112 H112       28.5886   32.6910    3.1523 H         1 UNK         0.0806 
    113 H113       27.0471   33.2609    3.7843 H         1 UNK         0.0806 
    114 H114       28.4164   33.0915    4.8566 H         1 UNK         0.0806 
    115 H115       29.1659   31.4003    6.2615 H         1 UNK         0.3010 
    116 H116       30.6355   28.9457    5.9724 H         1 UNK         0.0829 
    117 H117       32.1885   29.9843    7.6228 H         1 UNK         0.0813 
    118 H118       31.3759   31.5323    7.4502 H         1 UNK         0.0813 
    119 H119       30.5204   30.1520    8.1384 H         1 UNK         0.0813 
    120 H120       31.3083   32.3215    4.9853 H         1 UNK         0.3038 
    121 H121       32.7397   33.2915    3.5765 H         1 UNK         0.0769 
    122 H122       32.3112   30.7113    1.9599 H         1 UNK         0.0811 
    123 H123       32.9717   32.2159    1.3179 H         1 UNK         0.0811 
    124 H124       31.3214   32.1595    1.9037 H         1 UNK         0.0811 
    125 H125       34.3107   30.5662    2.2443 H         1 UNK         0.3204 
    126 H126       36.9094   31.2147    3.2104 H         1 UNK         0.0748 
    127 H127       36.5114   30.0725    1.0385 H         1 UNK         0.0771 
    128 H128       37.5486   29.0868    2.0550 H         1 UNK         0.0771 
    129 H129       35.8521   28.6629    1.8715 H         1 UNK         0.0771 
    130 H130       34.3769   29.1787    4.6013 H         1 UNK         0.2980 
    131 H131       36.1883   27.7977    6.4314 H         1 UNK         0.0545 
    132 H132       35.1280   31.2491    8.1797 H         1 UNK         0.3459 
    133 H133       35.0553   31.0409    6.4470 H         1 UNK         0.3459 
    134 H134       34.1869   26.7457    7.3615 H         1 UNK         0.0616 
    135 H135       33.1408   27.8291    6.4850 H         1 UNK         0.0616 
    136 H136       31.8239   25.4100    5.3630 H         1 UNK         0.0634 
    137 H137       31.8719   27.0248    4.7057 H         1 UNK         0.0634 
@<TRIPOS>BOND
     1    1    2 1    
     2    1   72 1    
     3    1   73 1    
     4    1   74 1    
     5    2    3 2    
     6    2    4 am   BACKBONE|DICT|INTERRES
     7    4    5 1    
     8    4   75 1    
     9    5    6 1    
    10    5   35 1    
    11    5   76 1    
    12    6    7 1    
    13    6   77 1    
    14    6   78 1    
    15    7    8 1    
    16    8    9 1    
    17    8   79 1    
    18    8   80 1    
    19    9   10 ar   
    20    9   14 ar   
    21   10   11 ar   
    22   10   81 1    
    23   11   12 ar   
    24   11   71 1    
    25   12   13 ar   
    26   12   82 1    
    27   13   14 ar   
    28   13   15 1    
    29   14   83 1    
    30   15   16 1    
    31   15   84 1    
    32   15   85 1    
    33   16   17 1    
    34   17   18 1    
    35   17   86 1    
    36   17   87 1    
    37   18   19 1    
    38   18   37 1    
    39   18   88 1    
    40   19   20 am   BACKBONE|DICT|INTERRES
    41   19   89 1    
    42   20   21 2    
    43   20   22 1    
    44   22   23 1    
    45   22   24 1    
    46   22   90 1    
    47   23   91 1    
    48   23   92 1    
    49   23   93 1    
    50   24   25 am   BACKBONE|DICT|INTERRES
    51   24   94 1    
    52   25   26 2    
    53   25   27 1    
    54   27   28 1    
    55   27   29 1    
    56   27   95 1    
    57   28   96 1    
    58   28   97 1    
    59   28   98 1    
    60   29   30 am   BACKBONE|DICT|INTERRES
    61   29   99 1    
    62   30   31 2    
    63   30   32 1    
    64   32   33 1    
    65   32   34 1    
    66   32  100 1    
    67   33  101 1    
    68   33  102 1    
    69   33  103 1    
    70   34   35 am   BACKBONE|DICT|INTERRES
    71   34  104 1    
    72   35   36 2    
    73   37   38 2    
    74   37   39 am   BACKBONE|DICT|INTERRES
    75   39   40 1    
    76   39  105 1    
    77   40   41 1    
    78   40   42 1    
    79   40  106 1    
    80   41  107 1    
    81   41  108 1    
    82   41  109 1    
    83   42   43 2    
    84   42   44 am   BACKBONE|DICT|INTERRES
    85   44   45 1    
    86   44  110 1    
    87   45   46 1    
    88   45   47 1    
    89   45  111 1    
    90   46  112 1    
    91   46  113 1    
    92   46  114 1    
    93   47   48 2    
    94   47   49 am   BACKBONE|DICT|INTERRES
    95   49   50 1    
    96   49  115 1    
    97   50   51 1    
    98   50   52 1    
    99   50  116 1    
   100   51  117 1    
   101   51  118 1    
   102   51  119 1    
   103   52   53 2    
   104   52   54 am   BACKBONE|DICT|INTERRES
   105   54   55 1    
   106   54  120 1    
   107   55   56 1    
   108   55   57 1    
   109   55  121 1    
   110   56  122 1    
   111   56  123 1    
   112   56  124 1    
   113   57   58 2    
   114   57   59 am   BACKBONE|DICT|INTERRES
   115   59   60 1    
   116   59  125 1    
   117   60   61 1    
   118   60   62 1    
   119   60  126 1    
   120   61  127 1    
   121   61  128 1    
   122   61  129 1    
   123   62   63 2    
   124   62   64 am   BACKBONE|DICT|INTERRES
   125   64   65 1    
   126   64  130 1    
   127   65   66 1    
   128   65   69 1    
   129   65  131 1    
   130   66   67 am   BACKBONE|DICT|INTERRES
   131   66   68 2    
   132   67  132 1    
   133   67  133 1    
   134   69   70 1    
   135   69  134 1    
   136   69  135 1    
   137   70   71 1    
   138   71  136 1    
   139   71  137 1    
@<TRIPOS>SUBSTRUCTURE
     1 UNK         1 GROUP             0       ****    0 ROOT    
