@<TRIPOS>MOLECULE
3R136
137   139    1
SMALL
USER_CHARGES


@<TRIPOS>ATOM
      1 CA         25.2423   21.0045    2.3646 C.3       0 UNK        -0.1979 
      2 C          26.1101   22.1736    1.9271 C.2       0 UNK         0.4864 
      3 O          25.6406   23.0364    1.1826 O.2       0 UNK        -0.5359 
      4 N          27.3667   22.2209    2.3954 N.am      1 UNK        -0.4318 
      5 CA         28.3768   23.2321    2.0481 C.3       1 UNK         0.0824 
      6 C6         29.7268   22.9949    2.7645 C.3       12 UNK        -0.0944 
      7 S7         30.4615   21.3591    2.4179 S.3       12 UNK        -0.2672 
      8 C8         31.3218   21.6156    0.8246 C.3       12 UNK         0.0333 
      9 C9         32.2357   22.8374    0.8026 C.ar      12 UNK        -0.0807 
     10 C10        33.1849   23.0433    1.8099 C.ar      12 UNK        -0.0894 
     11 C11        33.9724   24.1987    1.8187 C.ar      12 UNK        -0.0804 
     12 C12        33.8374   25.1328    0.7874 C.ar      12 UNK        -0.0824 
     13 C13        32.9105   24.9273   -0.2383 C.ar      12 UNK        -0.0762 
     14 C14        32.1138   23.7779   -0.2254 C.ar      12 UNK        -0.0782 
     15 C15        32.7625   25.9532   -1.3546 C.3       12 UNK         0.0230 
     16 S16        32.0267   27.5145   -0.7687 S.3       12 UNK        -0.2608 
     17 C17        30.3528   26.9843   -0.2719 C.3       12 UNK        -0.0989 
     18 CA         29.2796   27.3063   -1.3420 C.3       5 UNK         0.0716 
     19 N          28.1449   26.3900   -1.2348 N.am      5 UNK        -0.4135 
     20 C          27.3756   26.0121   -2.2625 C.2       4 UNK         0.5031 
     21 O          27.5261   26.4188   -3.4160 O.2       4 UNK        -0.5229 
     22 CA         26.2747   24.9774   -1.9753 C.3       4 UNK         0.0329 
     23 CB         26.8576   23.5548   -1.9956 C.3       4 UNK        -0.2001 
     24 N          25.5691   25.1926   -0.7113 N.am      4 UNK        -0.4303 
     25 C          24.7011   26.1897   -0.4862 C.2       3 UNK         0.5044 
     26 O          24.4371   27.0692   -1.3067 O.2       3 UNK        -0.5152 
     27 CA         23.9839   26.1929    0.8723 C.3       3 UNK         0.0319 
     28 CB         22.8079   25.2019    0.8646 C.3       3 UNK        -0.2001 
     29 N          24.9024   25.8467    1.9561 N.am      3 UNK        -0.4354 
     30 C          25.5481   26.7426    2.7161 C.2       2 UNK         0.4964 
     31 O          25.3656   27.9584    2.6472 O.2       2 UNK        -0.5047 
     32 CA         26.5722   26.2033    3.7343 C.3       2 UNK         0.0288 
     33 CB         25.9386   26.1017    5.1315 C.3       2 UNK        -0.2113 
     34 N          27.1518   24.9053    3.3758 N.am      2 UNK        -0.4145 
     35 C          27.9085   24.6804    2.2916 C.2       1 UNK         0.5006 
     36 O          28.2017   25.5498    1.4733 O.2       1 UNK        -0.5103 
     37 C          28.8134   28.7693   -1.2349 C.2       5 UNK         0.5055 
     38 O          27.8261   29.0613   -0.5563 O.2       5 UNK        -0.5220 
     39 N          29.5839   29.6707   -1.8568 N.am      6 UNK        -0.4450 
     40 CA         29.4471   31.1230   -1.7154 C.3       6 UNK         0.0367 
     41 CB         30.0669   31.8040   -2.9469 C.3       6 UNK        -0.1929 
     42 C          30.0911   31.6618   -0.4218 C.2       6 UNK         0.5070 
     43 O          29.8670   32.8239   -0.0794 O.2       6 UNK        -0.5237 
     44 N          30.8907   30.8337    0.2674 N.am      7 UNK        -0.4739 
     45 CA         31.5896   31.1543    1.5127 C.3       7 UNK         0.0276 
     46 CB         32.7068   30.1185    1.7427 C.3       7 UNK        -0.1927 
     47 C          30.6272   31.2391    2.7117 C.2       7 UNK         0.5013 
     48 O          30.6174   30.3478    3.5620 O.2       7 UNK        -0.5193 
     49 N          29.8490   32.3276    2.7774 N.am      8 UNK        -0.4253 
     50 CA         28.9109   32.6431    3.8640 C.3       8 UNK         0.0242 
     51 CB         28.1331   33.9191    3.5039 C.3       8 UNK        -0.2000 
     52 C          29.5739   32.7874    5.2491 C.2       8 UNK         0.4948 
     53 O          28.9102   32.5707    6.2630 O.2       8 UNK        -0.5275 
     54 N          30.8738   33.1144    5.2659 N.am      9 UNK        -0.4246 
     55 CA         31.7312   33.1469    6.4537 C.3       9 UNK         0.0261 
     56 CB         32.9384   34.0548    6.1587 C.3       9 UNK        -0.1959 
     57 C          32.2007   31.7524    6.9262 C.2       9 UNK         0.5033 
     58 O          32.8948   31.6844    7.9422 O.2       9 UNK        -0.5390 
     59 N          31.8324   30.6863    6.1962 N.am      10 UNK        -0.4215 
     60 CA         32.2288   29.2822    6.3569 C.3       10 UNK         0.0240 
     61 CB         31.9531   28.7611    7.7857 C.3       10 UNK        -0.1982 
     62 C          33.6726   29.0159    5.8909 C.2       10 UNK         0.4970 
     63 O          34.3755   29.9316    5.4555 O.2       10 UNK        -0.4916 
     64 N          34.0623   27.7377    5.9404 N.am      11 UNK        -0.4279 
     65 CA         35.3680   27.2209    5.5062 C.3       11 UNK         0.1003 
     66 C          36.5461   27.7581    6.3638 C.2       11 UNK         0.5709 
     67 N          37.6984   28.0011    5.7539 N.am      11 UNK        -0.7358 
     68 O          36.4379   27.9117    7.5794 O.2       11 UNK        -0.4999 
     69 C69        35.3751   25.6692    5.4781 C.3       12 UNK        -0.0954 
     70 S70        34.0333   24.9876    4.4470 S.3       12 UNK        -0.2268 
     71 C71        34.9393   24.4570    2.9629 C.3       12 UNK         0.0203 
     72 H72        25.7770   20.3251    3.0280 H         1 UNK         0.0888 
     73 H73        24.3600   21.3694    2.8895 H         1 UNK         0.0888 
     74 H74        24.9116   20.4396    1.4937 H         1 UNK         0.0888 
     75 H75        27.6964   21.4771    2.9948 H         1 UNK         0.3017 
     76 H76        28.5509   23.1408    0.9748 H         1 UNK         0.0873 
     77 H77        30.4444   23.7756    2.5066 H         1 UNK         0.0745 
     78 H78        29.5956   23.0690    3.8458 H         1 UNK         0.0745 
     79 H79        30.5677   21.6849    0.0391 H         1 UNK         0.0705 
     80 H80        31.9158   20.7288    0.6007 H         1 UNK         0.0705 
     81 H81        33.2803   22.3250    2.6129 H         1 UNK         0.1334 
     82 H82        34.4382   26.0322    0.7902 H         1 UNK         0.1417 
     83 H83        31.3862   23.6237   -1.0109 H         1 UNK         0.1562 
     84 H84        32.1573   25.5579   -2.1721 H         1 UNK         0.0748 
     85 H85        33.7455   26.1648   -1.7777 H         1 UNK         0.0748 
     86 H86        30.1069   27.4351    0.6925 H         1 UNK         0.0940 
     87 H87        30.3739   25.9125   -0.0785 H         1 UNK         0.0940 
     88 H88        29.7271   27.1613   -2.3282 H         1 UNK         0.0703 
     89 H89        27.9406   26.0530   -0.2969 H         1 UNK         0.3081 
     90 H90        25.5407   25.0486   -2.7811 H         1 UNK         0.0719 
     91 H91        27.3524   23.3486   -2.9457 H         1 UNK         0.0809 
     92 H92        27.5938   23.4085   -1.2055 H         1 UNK         0.0809 
     93 H93        26.0770   22.8046   -1.8669 H         1 UNK         0.0809 
     94 H94        25.6812   24.4750    0.0015 H         1 UNK         0.2990 
     95 H95        23.5749   27.1929    1.0328 H         1 UNK         0.0690 
     96 H96        22.2582   25.2346    1.8054 H         1 UNK         0.0788 
     97 H97        23.1410   24.1751    0.7076 H         1 UNK         0.0788 
     98 H98        22.1019   25.4415    0.0683 H         1 UNK         0.0788 
     99 H99        25.1385   24.8651    2.0472 H         1 UNK         0.2993 
    100 H100       27.3891   26.9272    3.7788 H         1 UNK         0.0949 
    101 H101       26.6748   25.8128    5.8819 H         1 UNK         0.0767 
    102 H102       25.5224   27.0612    5.4421 H         1 UNK         0.0767 
    103 H103       25.1281   25.3720    5.1550 H         1 UNK         0.0767 
    104 H104       26.9446   24.1278    3.9859 H         1 UNK         0.3013 
    105 H105       30.3833   29.3431   -2.3819 H         1 UNK         0.3121 
    106 H106       28.3856   31.3783   -1.6820 H         1 UNK         0.0774 
    107 H107       31.1343   31.5957   -3.0307 H         1 UNK         0.0815 
    108 H108       29.5856   31.4740   -3.8677 H         1 UNK         0.0815 
    109 H109       29.9503   32.8875   -2.8938 H         1 UNK         0.0815 
    110 H110       31.0126   29.8935   -0.0809 H         1 UNK         0.2987 
    111 H111       32.0638   32.1319    1.4004 H         1 UNK         0.0949 
    112 H112       33.4151   30.1053    0.9142 H         1 UNK         0.0806 
    113 H113       33.2720   30.3477    2.6476 H         1 UNK         0.0806 
    114 H114       32.3081   29.1097    1.8582 H         1 UNK         0.0806 
    115 H115       29.8643   32.9571    1.9811 H         1 UNK         0.3010 
    116 H116       28.2012   31.8158    3.9321 H         1 UNK         0.0829 
    117 H117       27.5835   33.7988    2.5700 H         1 UNK         0.0813 
    118 H118       27.4040   34.1641    4.2777 H         1 UNK         0.0813 
    119 H119       28.7957   34.7788    3.3958 H         1 UNK         0.0813 
    120 H120       31.3258   33.2909    4.3806 H         1 UNK         0.3038 
    121 H121       31.1653   33.5898    7.2762 H         1 UNK         0.0769 
    122 H122       33.5741   34.1602    7.0390 H         1 UNK         0.0811 
    123 H123       32.6220   35.0574    5.8706 H         1 UNK         0.0811 
    124 H124       33.5588   33.6522    5.3569 H         1 UNK         0.0811 
    125 H125       31.2938   30.8558    5.3521 H         1 UNK         0.3204 
    126 H126       31.5825   28.7272    5.6749 H         1 UNK         0.0748 
    127 H127       32.0042   27.6729    7.8282 H         1 UNK         0.0771 
    128 H128       32.6763   29.1445    8.5062 H         1 UNK         0.0771 
    129 H129       30.9575   29.0459    8.1263 H         1 UNK         0.0771 
    130 H130       33.4250   27.0464    6.3051 H         1 UNK         0.2980 
    131 H131       35.5175   27.5728    4.4833 H         1 UNK         0.0545 
    132 H132       38.4788   28.3344    6.2979 H         1 UNK         0.3459 
    133 H133       37.8024   27.8665    4.7603 H         1 UNK         0.3459 
    134 H134       36.3334   25.2940    5.1138 H         1 UNK         0.0616 
    135 H135       35.2574   25.2694    6.4870 H         1 UNK         0.0616 
    136 H136       35.6630   25.2245    2.6838 H         1 UNK         0.0634 
    137 H137       35.5082   23.5532    3.1857 H         1 UNK         0.0634 
@<TRIPOS>BOND
     1    1    2 1    
     2    1   72 1    
     3    1   73 1    
     4    1   74 1    
     5    2    3 2    
     6    2    4 am   BACKBONE|DICT|INTERRES
     7    4    5 1    
     8    4   75 1    
     9    5    6 1    
    10    5   35 1    
    11    5   76 1    
    12    6    7 1    
    13    6   77 1    
    14    6   78 1    
    15    7    8 1    
    16    8    9 1    
    17    8   79 1    
    18    8   80 1    
    19    9   10 ar   
    20    9   14 ar   
    21   10   11 ar   
    22   10   81 1    
    23   11   12 ar   
    24   11   71 1    
    25   12   13 ar   
    26   12   82 1    
    27   13   14 ar   
    28   13   15 1    
    29   14   83 1    
    30   15   16 1    
    31   15   84 1    
    32   15   85 1    
    33   16   17 1    
    34   17   18 1    
    35   17   86 1    
    36   17   87 1    
    37   18   19 1    
    38   18   37 1    
    39   18   88 1    
    40   19   20 am   BACKBONE|DICT|INTERRES
    41   19   89 1    
    42   20   21 2    
    43   20   22 1    
    44   22   23 1    
    45   22   24 1    
    46   22   90 1    
    47   23   91 1    
    48   23   92 1    
    49   23   93 1    
    50   24   25 am   BACKBONE|DICT|INTERRES
    51   24   94 1    
    52   25   26 2    
    53   25   27 1    
    54   27   28 1    
    55   27   29 1    
    56   27   95 1    
    57   28   96 1    
    58   28   97 1    
    59   28   98 1    
    60   29   30 am   BACKBONE|DICT|INTERRES
    61   29   99 1    
    62   30   31 2    
    63   30   32 1    
    64   32   33 1    
    65   32   34 1    
    66   32  100 1    
    67   33  101 1    
    68   33  102 1    
    69   33  103 1    
    70   34   35 am   BACKBONE|DICT|INTERRES
    71   34  104 1    
    72   35   36 2    
    73   37   38 2    
    74   37   39 am   BACKBONE|DICT|INTERRES
    75   39   40 1    
    76   39  105 1    
    77   40   41 1    
    78   40   42 1    
    79   40  106 1    
    80   41  107 1    
    81   41  108 1    
    82   41  109 1    
    83   42   43 2    
    84   42   44 am   BACKBONE|DICT|INTERRES
    85   44   45 1    
    86   44  110 1    
    87   45   46 1    
    88   45   47 1    
    89   45  111 1    
    90   46  112 1    
    91   46  113 1    
    92   46  114 1    
    93   47   48 2    
    94   47   49 am   BACKBONE|DICT|INTERRES
    95   49   50 1    
    96   49  115 1    
    97   50   51 1    
    98   50   52 1    
    99   50  116 1    
   100   51  117 1    
   101   51  118 1    
   102   51  119 1    
   103   52   53 2    
   104   52   54 am   BACKBONE|DICT|INTERRES
   105   54   55 1    
   106   54  120 1    
   107   55   56 1    
   108   55   57 1    
   109   55  121 1    
   110   56  122 1    
   111   56  123 1    
   112   56  124 1    
   113   57   58 2    
   114   57   59 am   BACKBONE|DICT|INTERRES
   115   59   60 1    
   116   59  125 1    
   117   60   61 1    
   118   60   62 1    
   119   60  126 1    
   120   61  127 1    
   121   61  128 1    
   122   61  129 1    
   123   62   63 2    
   124   62   64 am   BACKBONE|DICT|INTERRES
   125   64   65 1    
   126   64  130 1    
   127   65   66 1    
   128   65   69 1    
   129   65  131 1    
   130   66   67 am   BACKBONE|DICT|INTERRES
   131   66   68 2    
   132   67  132 1    
   133   67  133 1    
   134   69   70 1    
   135   69  134 1    
   136   69  135 1    
   137   70   71 1    
   138   71  136 1    
   139   71  137 1    
@<TRIPOS>SUBSTRUCTURE
     1 UNK         1 GROUP             0       ****    0 ROOT    
