@<TRIPOS>MOLECULE
3R136
137   139    1
SMALL
USER_CHARGES


@<TRIPOS>ATOM
      1 CA         31.4841   29.2624   -4.2267 C.3       0 UNK        -0.1979 
      2 C          30.4455   28.8413   -3.1977 C.2       0 UNK         0.4864 
      3 O          29.3012   29.2908   -3.2660 O.2       0 UNK        -0.5359 
      4 N          30.8387   27.9859   -2.2434 N.am      1 UNK        -0.4318 
      5 CA         29.9732   27.4691   -1.1770 C.3       1 UNK         0.0824 
      6 C6         30.8121   26.8426   -0.0363 C.3       12 UNK        -0.0944 
      7 S7         29.9039   26.7533    1.5386 S.3       12 UNK        -0.2672 
      8 C8         30.8357   25.4340    2.3764 C.3       12 UNK         0.0333 
      9 C9         30.5030   25.4257    3.8569 C.ar      12 UNK        -0.0807 
     10 C10        31.2376   26.2225    4.7356 C.ar      12 UNK        -0.0894 
     11 C11        30.8890   26.3006    6.0849 C.ar      12 UNK        -0.0804 
     12 C12        29.7787   25.5904    6.5511 C.ar      12 UNK        -0.0824 
     13 C13        29.0360   24.7827    5.6819 C.ar      12 UNK        -0.0762 
     14 C14        29.4325   24.6712    4.3431 C.ar      12 UNK        -0.0782 
     15 C15        27.8041   24.0463    6.2012 C.3       12 UNK         0.0230 
     16 S16        26.3639   24.1379    5.0798 S.3       12 UNK        -0.2608 
     17 C17        26.0480   25.9366    4.9548 C.3       12 UNK        -0.0989 
     18 CA         26.6346   26.5665    3.6580 C.3       5 UNK         0.0716 
     19 N          26.2739   25.8587    2.4224 N.am      5 UNK        -0.4135 
     20 C          25.0432   25.7202    1.9071 C.2       4 UNK         0.5031 
     21 O          24.0187   26.1438    2.4443 O.2       4 UNK        -0.5229 
     22 CA         24.9262   25.0098    0.5472 C.3       4 UNK         0.0329 
     23 CB         24.4797   26.0037   -0.5391 C.3       4 UNK        -0.2001 
     24 N          26.1794   24.3807    0.1212 N.am      4 UNK        -0.4303 
     25 C          26.5491   23.1264    0.4225 C.2       3 UNK         0.5044 
     26 O          25.8729   22.3756    1.1270 O.2       3 UNK        -0.5152 
     27 CA         27.9026   22.6255   -0.1343 C.3       3 UNK         0.0319 
     28 CB         27.8826   21.1189   -0.4695 C.3       3 UNK        -0.2001 
     29 N          28.4103   23.4097   -1.2691 N.am      3 UNK        -0.4354 
     30 C          27.8281   23.5943   -2.4660 C.2       2 UNK         0.4964 
     31 O          26.8162   22.9956   -2.8336 O.2       2 UNK        -0.5047 
     32 CA         28.4625   24.6565   -3.3933 C.3       2 UNK         0.0288 
     33 CB         27.4058   25.3583   -4.2735 C.3       2 UNK        -0.2113 
     34 N          29.2852   25.6656   -2.7031 N.am      2 UNK        -0.4145 
     35 C          28.9097   26.4826   -1.7026 C.2       1 UNK         0.5006 
     36 O          27.7954   26.4584   -1.1767 O.2       1 UNK        -0.5103 
     37 C          26.3636   28.0774    3.5155 C.2       5 UNK         0.5055 
     38 O          25.7558   28.6974    4.3894 O.2       5 UNK        -0.5220 
     39 N          26.8271   28.6353    2.3882 N.am      6 UNK        -0.4450 
     40 CA         26.6248   30.0227    1.9647 C.3       6 UNK         0.0367 
     41 CB         26.7008   30.0696    0.4272 C.3       6 UNK        -0.1929 
     42 C          27.6082   31.0274    2.6007 C.2       6 UNK         0.5070 
     43 O          27.6490   32.1744    2.1547 O.2       6 UNK        -0.5237 
     44 N          28.3831   30.5909    3.6064 N.am      7 UNK        -0.4739 
     45 CA         29.4497   31.3280    4.2972 C.3       7 UNK         0.0276 
     46 CB         28.8892   32.5401    5.0720 C.3       7 UNK        -0.1927 
     47 C          30.5960   31.6917    3.3365 C.2       7 UNK         0.5013 
     48 O          30.9283   32.8677    3.1717 O.2       7 UNK        -0.5193 
     49 N          31.1584   30.6571    2.7053 N.am      8 UNK        -0.4253 
     50 CA         32.2694   30.7300    1.7638 C.3       8 UNK         0.0242 
     51 CB         31.7082   30.7743    0.3303 C.3       8 UNK        -0.2000 
     52 C          33.1785   29.5135    1.9824 C.2       8 UNK         0.4948 
     53 O          32.8333   28.6229    2.7642 O.2       8 UNK        -0.5275 
     54 N          34.3200   29.4931    1.2804 N.am      9 UNK        -0.4246 
     55 CA         35.3426   28.4401    1.2792 C.3       9 UNK         0.0261 
     56 CB         34.7995   27.1414    0.6395 C.3       9 UNK        -0.1959 
     57 C          35.9625   28.2199    2.6719 C.2       9 UNK         0.5033 
     58 O          36.9565   28.8696    2.9987 O.2       9 UNK        -0.5390 
     59 N          35.3694   27.3147    3.4606 N.am      10 UNK        -0.4215 
     60 CA         35.7832   26.9806    4.8251 C.3       10 UNK         0.0240 
     61 CB         35.1779   25.6208    5.2127 C.3       10 UNK        -0.1982 
     62 C          35.4203   28.0559    5.8672 C.2       10 UNK         0.4970 
     63 O          35.9961   28.0403    6.9560 O.2       10 UNK        -0.4916 
     64 N          34.4875   28.9554    5.5365 N.am      11 UNK        -0.4279 
     65 CA         34.0447   30.0668    6.3888 C.3       11 UNK         0.1003 
     66 C          33.6861   31.3194    5.5413 C.2       11 UNK         0.5709 
     67 N          32.8882   32.2429    6.0603 N.am      11 UNK        -0.7358 
     68 O          34.1685   31.4899    4.4239 O.2       11 UNK        -0.4999 
     69 C69        32.9801   29.6286    7.4389 C.3       12 UNK        -0.0954 
     70 S70        31.4652   28.9279    6.7017 S.3       12 UNK        -0.2268 
     71 C71        31.7207   27.1573    7.0241 C.3       12 UNK         0.0203 
     72 H72        32.4525   28.7968   -4.0447 H         1 UNK         0.0888 
     73 H73        31.1557   28.9821   -5.2272 H         1 UNK         0.0888 
     74 H74        31.6184   30.3435   -4.2023 H         1 UNK         0.0888 
     75 H75        31.7948   27.6599   -2.2378 H         1 UNK         0.3017 
     76 H76        29.4321   28.3253   -0.7692 H         1 UNK         0.0873 
     77 H77        31.1831   25.8535   -0.3128 H         1 UNK         0.0745 
     78 H78        31.6977   27.4505    0.1540 H         1 UNK         0.0745 
     79 H79        31.9057   25.5967    2.2378 H         1 UNK         0.0705 
     80 H80        30.6014   24.4703    1.9219 H         1 UNK         0.0705 
     81 H81        32.0686   26.8059    4.3658 H         1 UNK         0.1334 
     82 H82        29.4922   25.6695    7.5910 H         1 UNK         0.1417 
     83 H83        28.8642   24.0504    3.6642 H         1 UNK         0.1562 
     84 H84        27.5054   24.4335    7.1766 H         1 UNK         0.0748 
     85 H85        28.0635   22.9978    6.3520 H         1 UNK         0.0748 
     86 H86        26.4557   26.4338    5.8369 H         1 UNK         0.0940 
     87 H87        24.9683   26.0904    4.9966 H         1 UNK         0.0940 
     88 H88        27.7173   26.5048    3.7306 H         1 UNK         0.0703 
     89 H89        27.0429   25.4746    1.8944 H         1 UNK         0.3081 
     90 H90        24.1527   24.2449    0.6432 H         1 UNK         0.0719 
     91 H91        23.5084   26.4371   -0.2971 H         1 UNK         0.0809 
     92 H92        25.1850   26.8284   -0.6479 H         1 UNK         0.0809 
     93 H93        24.3839   25.5150   -1.5090 H         1 UNK         0.0809 
     94 H94        26.7926   24.9548   -0.4523 H         1 UNK         0.2990 
     95 H95        28.6227   22.7700    0.6725 H         1 UNK         0.0690 
     96 H96        27.1260   20.8796   -1.2173 H         1 UNK         0.0788 
     97 H97        27.6609   20.5229    0.4166 H         1 UNK         0.0788 
     98 H98        28.8478   20.7837   -0.8489 H         1 UNK         0.0788 
     99 H99        29.2443   23.9468   -1.0809 H         1 UNK         0.2993 
    100 H100       29.1360   24.1094   -4.0549 H         1 UNK         0.0949 
    101 H101       26.6574   25.8732   -3.6696 H         1 UNK         0.0767 
    102 H102       27.8652   26.0934   -4.9346 H         1 UNK         0.0767 
    103 H103       26.8787   24.6426   -4.9057 H         1 UNK         0.0767 
    104 H104       30.2303   25.7604   -3.0479 H         1 UNK         0.3013 
    105 H105       27.3410   28.0488    1.7453 H         1 UNK         0.3121 
    106 H106       25.6204   30.3312    2.2625 H         1 UNK         0.0774 
    107 H107       26.4504   31.0622    0.0506 H         1 UNK         0.0815 
    108 H108       27.7011   29.8289    0.0661 H         1 UNK         0.0815 
    109 H109       26.0012   29.3691   -0.0293 H         1 UNK         0.0815 
    110 H110       28.2573   29.6318    3.8958 H         1 UNK         0.2987 
    111 H111       29.8709   30.6448    5.0340 H         1 UNK         0.0949 
    112 H112       28.0992   32.2396    5.7600 H         1 UNK         0.0806 
    113 H113       29.6724   33.0142    5.6647 H         1 UNK         0.0806 
    114 H114       28.4834   33.3017    4.4058 H         1 UNK         0.0806 
    115 H115       30.8916   29.7125    2.9536 H         1 UNK         0.3010 
    116 H116       32.8622   31.6269    1.9561 H         1 UNK         0.0829 
    117 H117       31.0753   31.6498    0.1836 H         1 UNK         0.0813 
    118 H118       32.5038   30.8246   -0.4135 H         1 UNK         0.0813 
    119 H119       31.1070   29.8931    0.1104 H         1 UNK         0.0813 
    120 H120       34.5317   30.2944    0.7022 H         1 UNK         0.3038 
    121 H121       36.1503   28.7993    0.6392 H         1 UNK         0.0769 
    122 H122       34.5121   27.3101   -0.3983 H         1 UNK         0.0811 
    123 H123       35.5601   26.3594    0.6376 H         1 UNK         0.0811 
    124 H124       33.9264   26.7475    1.1593 H         1 UNK         0.0811 
    125 H125       34.5131   26.8965    3.1247 H         1 UNK         0.3204 
    126 H126       36.8708   26.8809    4.8345 H         1 UNK         0.0748 
    127 H127       35.5127   24.8321    4.5387 H         1 UNK         0.0771 
    128 H128       35.4786   25.3312    6.2207 H         1 UNK         0.0771 
    129 H129       34.0886   25.6388    5.1912 H         1 UNK         0.0771 
    130 H130       34.0690   28.9261    4.6140 H         1 UNK         0.2980 
    131 H131       34.9174   30.4005    6.9529 H         1 UNK         0.0545 
    132 H132       32.4940   32.1344    6.9807 H         1 UNK         0.3459 
    133 H133       32.6704   33.0587    5.5099 H         1 UNK         0.3459 
    134 H134       33.4197   28.8955    8.1167 H         1 UNK         0.0616 
    135 H135       32.6970   30.4645    8.0795 H         1 UNK         0.0616 
    136 H136       31.4809   26.9448    8.0669 H         1 UNK         0.0634 
    137 H137       32.7729   26.9047    6.8907 H         1 UNK         0.0634 
@<TRIPOS>BOND
     1    1    2 1    
     2    1   72 1    
     3    1   73 1    
     4    1   74 1    
     5    2    3 2    
     6    2    4 am   BACKBONE|DICT|INTERRES
     7    4    5 1    
     8    4   75 1    
     9    5    6 1    
    10    5   35 1    
    11    5   76 1    
    12    6    7 1    
    13    6   77 1    
    14    6   78 1    
    15    7    8 1    
    16    8    9 1    
    17    8   79 1    
    18    8   80 1    
    19    9   10 ar   
    20    9   14 ar   
    21   10   11 ar   
    22   10   81 1    
    23   11   12 ar   
    24   11   71 1    
    25   12   13 ar   
    26   12   82 1    
    27   13   14 ar   
    28   13   15 1    
    29   14   83 1    
    30   15   16 1    
    31   15   84 1    
    32   15   85 1    
    33   16   17 1    
    34   17   18 1    
    35   17   86 1    
    36   17   87 1    
    37   18   19 1    
    38   18   37 1    
    39   18   88 1    
    40   19   20 am   BACKBONE|DICT|INTERRES
    41   19   89 1    
    42   20   21 2    
    43   20   22 1    
    44   22   23 1    
    45   22   24 1    
    46   22   90 1    
    47   23   91 1    
    48   23   92 1    
    49   23   93 1    
    50   24   25 am   BACKBONE|DICT|INTERRES
    51   24   94 1    
    52   25   26 2    
    53   25   27 1    
    54   27   28 1    
    55   27   29 1    
    56   27   95 1    
    57   28   96 1    
    58   28   97 1    
    59   28   98 1    
    60   29   30 am   BACKBONE|DICT|INTERRES
    61   29   99 1    
    62   30   31 2    
    63   30   32 1    
    64   32   33 1    
    65   32   34 1    
    66   32  100 1    
    67   33  101 1    
    68   33  102 1    
    69   33  103 1    
    70   34   35 am   BACKBONE|DICT|INTERRES
    71   34  104 1    
    72   35   36 2    
    73   37   38 2    
    74   37   39 am   BACKBONE|DICT|INTERRES
    75   39   40 1    
    76   39  105 1    
    77   40   41 1    
    78   40   42 1    
    79   40  106 1    
    80   41  107 1    
    81   41  108 1    
    82   41  109 1    
    83   42   43 2    
    84   42   44 am   BACKBONE|DICT|INTERRES
    85   44   45 1    
    86   44  110 1    
    87   45   46 1    
    88   45   47 1    
    89   45  111 1    
    90   46  112 1    
    91   46  113 1    
    92   46  114 1    
    93   47   48 2    
    94   47   49 am   BACKBONE|DICT|INTERRES
    95   49   50 1    
    96   49  115 1    
    97   50   51 1    
    98   50   52 1    
    99   50  116 1    
   100   51  117 1    
   101   51  118 1    
   102   51  119 1    
   103   52   53 2    
   104   52   54 am   BACKBONE|DICT|INTERRES
   105   54   55 1    
   106   54  120 1    
   107   55   56 1    
   108   55   57 1    
   109   55  121 1    
   110   56  122 1    
   111   56  123 1    
   112   56  124 1    
   113   57   58 2    
   114   57   59 am   BACKBONE|DICT|INTERRES
   115   59   60 1    
   116   59  125 1    
   117   60   61 1    
   118   60   62 1    
   119   60  126 1    
   120   61  127 1    
   121   61  128 1    
   122   61  129 1    
   123   62   63 2    
   124   62   64 am   BACKBONE|DICT|INTERRES
   125   64   65 1    
   126   64  130 1    
   127   65   66 1    
   128   65   69 1    
   129   65  131 1    
   130   66   67 am   BACKBONE|DICT|INTERRES
   131   66   68 2    
   132   67  132 1    
   133   67  133 1    
   134   69   70 1    
   135   69  134 1    
   136   69  135 1    
   137   70   71 1    
   138   71  136 1    
   139   71  137 1    
@<TRIPOS>SUBSTRUCTURE
     1 UNK         1 GROUP             0       ****    0 ROOT    
