@<TRIPOS>MOLECULE
3R136
137   139    1
SMALL
USER_CHARGES


@<TRIPOS>ATOM
      1 CA         26.1991   25.7281    3.2830 C.3       0 UNK        -0.1979 
      2 C          26.3856   24.2195    3.2716 C.2       0 UNK         0.4864 
      3 O          25.4019   23.4789    3.3363 O.2       0 UNK        -0.5359 
      4 N          27.6377   23.7499    3.1882 N.am      1 UNK        -0.4318 
      5 CA         28.0104   22.3286    3.1888 C.3       1 UNK         0.0824 
      6 C6         29.4628   22.1004    3.6882 C.3       12 UNK        -0.0944 
      7 S7         29.7608   22.8338    5.3369 S.3       12 UNK        -0.2672 
      8 C8         31.5225   23.3150    5.2548 C.3       12 UNK         0.0333 
      9 C9         31.8613   24.1934    4.0545 C.ar      12 UNK        -0.0807 
     10 C10        32.9351   23.8553    3.2244 C.ar      12 UNK        -0.0894 
     11 C11        33.2352   24.6287    2.0989 C.ar      12 UNK        -0.0804 
     12 C12        32.4466   25.7422    1.7987 C.ar      12 UNK        -0.0824 
     13 C13        31.3786   26.0952    2.6262 C.ar      12 UNK        -0.0762 
     14 C14        31.0983   25.3276    3.7599 C.ar      12 UNK        -0.0782 
     15 C15        30.5403   27.3194    2.3109 C.3       12 UNK         0.0230 
     16 S16        29.0232   26.8611    1.4291 S.3       12 UNK        -0.2608 
     17 C17        28.2027   28.4860    1.3512 C.3       12 UNK        -0.0989 
     18 CA         28.1651   29.0576   -0.0861 C.3       5 UNK         0.0716 
     19 N          27.3607   28.2128   -0.9692 N.am      5 UNK        -0.4135 
     20 C          27.2216   28.3541   -2.2910 C.2       4 UNK         0.5031 
     21 O          27.7757   29.2355   -2.9516 O.2       4 UNK        -0.5229 
     22 CA         26.3543   27.2878   -2.9898 C.3       4 UNK         0.0329 
     23 CB         26.0590   27.6353   -4.4612 C.3       4 UNK        -0.2001 
     24 N          26.9908   25.9686   -2.9310 N.am      4 UNK        -0.4303 
     25 C          27.0174   25.1695   -1.8566 C.2       3 UNK         0.5044 
     26 O          26.4637   25.4434   -0.7876 O.2       3 UNK        -0.5152 
     27 CA         27.8549   23.8853   -1.9929 C.3       3 UNK         0.0319 
     28 CB         29.3390   24.1916   -1.7278 C.3       3 UNK        -0.2001 
     29 N          27.4274   22.8389   -1.0655 N.am      3 UNK        -0.4354 
     30 C          26.2551   22.1939   -1.0877 C.2       2 UNK         0.4964 
     31 O          25.4179   22.3355   -1.9802 O.2       2 UNK        -0.5047 
     32 CA         25.9449   21.2368    0.0817 C.3       2 UNK         0.0288 
     33 CB         26.3400   19.7870   -0.2634 C.3       2 UNK        -0.2113 
     34 N          26.4930   21.6561    1.3830 N.am      2 UNK        -0.4145 
     35 C          27.7697   21.7208    1.7898 C.2       1 UNK         0.5006 
     36 O          28.7264   21.3941    1.0847 O.2       1 UNK        -0.5103 
     37 C          27.6556   30.5109   -0.0424 C.2       5 UNK         0.5055 
     38 O          26.4431   30.7390   -0.0065 O.2       5 UNK        -0.5220 
     39 N          28.6010   31.4549    0.0394 N.am      6 UNK        -0.4450 
     40 CA         28.3519   32.8342    0.4594 C.3       6 UNK         0.0367 
     41 CB         29.4368   33.7477   -0.1356 C.3       6 UNK        -0.1929 
     42 C          28.3357   32.9156    1.9971 C.2       6 UNK         0.5070 
     43 O          28.8199   31.9966    2.6653 O.2       6 UNK        -0.5237 
     44 N          27.7812   34.0149    2.5257 N.am      7 UNK        -0.4739 
     45 CA         27.5755   34.2838    3.9543 C.3       7 UNK         0.0276 
     46 CB         26.9891   35.6967    4.1205 C.3       7 UNK        -0.1927 
     47 C          28.8504   34.1105    4.8023 C.2       7 UNK         0.5013 
     48 O          29.7509   34.9487    4.7272 O.2       7 UNK        -0.5193 
     49 N          28.8945   33.0069    5.5639 N.am      8 UNK        -0.4253 
     50 CA         29.9807   32.5574    6.4452 C.3       8 UNK         0.0242 
     51 CB         30.1919   33.5523    7.6070 C.3       8 UNK        -0.2000 
     52 C          31.3032   32.2138    5.7264 C.2       8 UNK         0.4948 
     53 O          32.3292   32.0764    6.3958 O.2       8 UNK        -0.5275 
     54 N          31.2809   32.0343    4.3976 N.am      9 UNK        -0.4246 
     55 CA         32.4596   31.7475    3.5714 C.3       9 UNK         0.0261 
     56 CB         32.2098   32.2793    2.1490 C.3       9 UNK        -0.1959 
     57 C          32.8377   30.2526    3.5841 C.2       9 UNK         0.5033 
     58 O          33.0103   29.6534    2.5213 O.2       9 UNK        -0.5390 
     59 N          32.9373   29.6673    4.7835 N.am      10 UNK        -0.4215 
     60 CA         33.2804   28.2622    5.0005 C.3       10 UNK         0.0240 
     61 CB         32.9056   27.8622    6.4362 C.3       10 UNK        -0.1982 
     62 C          34.7650   27.9812    4.7254 C.2       10 UNK         0.4970 
     63 O          35.6132   28.8154    5.0523 O.2       10 UNK        -0.4916 
     64 N          35.0488   26.7997    4.1649 N.am      11 UNK        -0.4279 
     65 CA         36.4092   26.2855    3.9502 C.3       11 UNK         0.1003 
     66 C          37.1382   25.9706    5.2857 C.2       11 UNK         0.5709 
     67 N          38.4502   26.1575    5.3354 N.am      11 UNK        -0.7358 
     68 O          36.5345   25.5214    6.2588 O.2       11 UNK        -0.4999 
     69 C69        36.4164   25.0429    3.0222 C.3       12 UNK        -0.0954 
     70 S70        35.7919   25.4143    1.3486 S.3       12 UNK        -0.2268 
     71 C71        34.3975   24.2538    1.1918 C.3       12 UNK         0.0203 
     72 H72        27.0876   26.2376    3.6549 H         1 UNK         0.0888 
     73 H73        25.9897   26.0851    2.2747 H         1 UNK         0.0888 
     74 H74        25.3628   26.0033    3.9250 H         1 UNK         0.0888 
     75 H75        28.4064   24.3987    3.0972 H         1 UNK         0.3017 
     76 H76        27.3497   21.8008    3.8806 H         1 UNK         0.0873 
     77 H77        29.6787   21.0324    3.7517 H         1 UNK         0.0745 
     78 H78        30.1738   22.5084    2.9689 H         1 UNK         0.0745 
     79 H79        31.7842   23.8510    6.1680 H         1 UNK         0.0705 
     80 H80        32.1246   22.4051    5.2481 H         1 UNK         0.0705 
     81 H81        33.5329   22.9820    3.4478 H         1 UNK         0.1334 
     82 H82        32.6720   26.3393    0.9253 H         1 UNK         0.1417 
     83 H83        30.2733   25.6017    4.4035 H         1 UNK         0.1562 
     84 H84        31.1060   28.0236    1.6995 H         1 UNK         0.0748 
     85 H85        30.2900   27.8410    3.2363 H         1 UNK         0.0748 
     86 H86        28.7099   29.1767    2.0291 H         1 UNK         0.0940 
     87 H87        27.1906   28.3789    1.7465 H         1 UNK         0.0940 
     88 H88        29.1815   29.0640   -0.4862 H         1 UNK         0.0703 
     89 H89        26.9193   27.4074   -0.5380 H         1 UNK         0.3081 
     90 H90        25.3991   27.2442   -2.4617 H         1 UNK         0.0719 
     91 H91        25.5707   28.6075   -4.5413 H         1 UNK         0.0809 
     92 H92        26.9700   27.6778   -5.0596 H         1 UNK         0.0809 
     93 H93        25.3927   26.9019   -4.9158 H         1 UNK         0.0809 
     94 H94        27.5059   25.6869   -3.7530 H         1 UNK         0.2990 
     95 H95        27.7452   23.5020   -3.0095 H         1 UNK         0.0690 
     96 H96        29.7163   24.9494   -2.4157 H         1 UNK         0.0788 
     97 H97        29.9573   23.3029   -1.8563 H         1 UNK         0.0788 
     98 H98        29.4975   24.5649   -0.7146 H         1 UNK         0.0788 
     99 H99        28.0623   22.6117   -0.3082 H         1 UNK         0.2993 
    100 H100       24.8610   21.2568    0.2075 H         1 UNK         0.0949 
    101 H101       26.0677   19.1002    0.5381 H         1 UNK         0.0767 
    102 H102       25.8281   19.4510   -1.1662 H         1 UNK         0.0767 
    103 H103       27.4104   19.6855   -0.4445 H         1 UNK         0.0767 
    104 H104       25.8128   22.0587    2.0234 H         1 UNK         0.3013 
    105 H105       29.5673   31.1632    0.0453 H         1 UNK         0.3121 
    106 H106       27.3786   33.1594    0.0851 H         1 UNK         0.0774 
    107 H107       29.2780   34.7879    0.1512 H         1 UNK         0.0815 
    108 H108       30.4358   33.4686    0.1970 H         1 UNK         0.0815 
    109 H109       29.4274   33.7109   -1.2251 H         1 UNK         0.0815 
    110 H110       27.4407   34.7245    1.8927 H         1 UNK         0.2987 
    111 H111       26.8262   33.5733    4.3098 H         1 UNK         0.0949 
    112 H112       27.6569   36.4611    3.7208 H         1 UNK         0.0806 
    113 H113       26.0281   35.7919    3.6147 H         1 UNK         0.0806 
    114 H114       26.8231   35.9288    5.1735 H         1 UNK         0.0806 
    115 H115       28.1136   32.3680    5.4966 H         1 UNK         0.3010 
    116 H116       29.6367   31.6184    6.8813 H         1 UNK         0.0829 
    117 H117       30.6057   34.4992    7.2591 H         1 UNK         0.0813 
    118 H118       29.2560   33.7644    8.1239 H         1 UNK         0.0813 
    119 H119       30.8837   33.1504    8.3483 H         1 UNK         0.0813 
    120 H120       30.3911   32.0948    3.9097 H         1 UNK         0.3038 
    121 H121       33.3143   32.2934    3.9768 H         1 UNK         0.0769 
    122 H122       31.3991   31.7394    1.6595 H         1 UNK         0.0811 
    123 H123       33.0988   32.1682    1.5269 H         1 UNK         0.0811 
    124 H124       31.9536   33.3388    2.1623 H         1 UNK         0.0811 
    125 H125       32.8338   30.2582    5.6019 H         1 UNK         0.3204 
    126 H126       32.6843   27.6649    4.3144 H         1 UNK         0.0748 
    127 H127       33.1258   26.8090    6.6176 H         1 UNK         0.0771 
    128 H128       33.4597   28.4438    7.1743 H         1 UNK         0.0771 
    129 H129       31.8413   28.0064    6.6232 H         1 UNK         0.0771 
    130 H130       34.2977   26.1692    3.9245 H         1 UNK         0.2980 
    131 H131       36.9720   27.0768    3.4506 H         1 UNK         0.0545 
    132 H132       38.9430   25.9442    6.1886 H         1 UNK         0.3459 
    133 H133       38.9575   26.5128    4.5398 H         1 UNK         0.3459 
    134 H134       35.8417   24.2287    3.4664 H         1 UNK         0.0616 
    135 H135       37.4329   24.6631    2.9042 H         1 UNK         0.0616 
    136 H136       34.0564   24.2545    0.1556 H         1 UNK         0.0634 
    137 H137       34.7456   23.2403    1.3974 H         1 UNK         0.0634 
@<TRIPOS>BOND
     1    1    2 1    
     2    1   72 1    
     3    1   73 1    
     4    1   74 1    
     5    2    3 2    
     6    2    4 am   BACKBONE|DICT|INTERRES
     7    4    5 1    
     8    4   75 1    
     9    5    6 1    
    10    5   35 1    
    11    5   76 1    
    12    6    7 1    
    13    6   77 1    
    14    6   78 1    
    15    7    8 1    
    16    8    9 1    
    17    8   79 1    
    18    8   80 1    
    19    9   10 ar   
    20    9   14 ar   
    21   10   11 ar   
    22   10   81 1    
    23   11   12 ar   
    24   11   71 1    
    25   12   13 ar   
    26   12   82 1    
    27   13   14 ar   
    28   13   15 1    
    29   14   83 1    
    30   15   16 1    
    31   15   84 1    
    32   15   85 1    
    33   16   17 1    
    34   17   18 1    
    35   17   86 1    
    36   17   87 1    
    37   18   19 1    
    38   18   37 1    
    39   18   88 1    
    40   19   20 am   BACKBONE|DICT|INTERRES
    41   19   89 1    
    42   20   21 2    
    43   20   22 1    
    44   22   23 1    
    45   22   24 1    
    46   22   90 1    
    47   23   91 1    
    48   23   92 1    
    49   23   93 1    
    50   24   25 am   BACKBONE|DICT|INTERRES
    51   24   94 1    
    52   25   26 2    
    53   25   27 1    
    54   27   28 1    
    55   27   29 1    
    56   27   95 1    
    57   28   96 1    
    58   28   97 1    
    59   28   98 1    
    60   29   30 am   BACKBONE|DICT|INTERRES
    61   29   99 1    
    62   30   31 2    
    63   30   32 1    
    64   32   33 1    
    65   32   34 1    
    66   32  100 1    
    67   33  101 1    
    68   33  102 1    
    69   33  103 1    
    70   34   35 am   BACKBONE|DICT|INTERRES
    71   34  104 1    
    72   35   36 2    
    73   37   38 2    
    74   37   39 am   BACKBONE|DICT|INTERRES
    75   39   40 1    
    76   39  105 1    
    77   40   41 1    
    78   40   42 1    
    79   40  106 1    
    80   41  107 1    
    81   41  108 1    
    82   41  109 1    
    83   42   43 2    
    84   42   44 am   BACKBONE|DICT|INTERRES
    85   44   45 1    
    86   44  110 1    
    87   45   46 1    
    88   45   47 1    
    89   45  111 1    
    90   46  112 1    
    91   46  113 1    
    92   46  114 1    
    93   47   48 2    
    94   47   49 am   BACKBONE|DICT|INTERRES
    95   49   50 1    
    96   49  115 1    
    97   50   51 1    
    98   50   52 1    
    99   50  116 1    
   100   51  117 1    
   101   51  118 1    
   102   51  119 1    
   103   52   53 2    
   104   52   54 am   BACKBONE|DICT|INTERRES
   105   54   55 1    
   106   54  120 1    
   107   55   56 1    
   108   55   57 1    
   109   55  121 1    
   110   56  122 1    
   111   56  123 1    
   112   56  124 1    
   113   57   58 2    
   114   57   59 am   BACKBONE|DICT|INTERRES
   115   59   60 1    
   116   59  125 1    
   117   60   61 1    
   118   60   62 1    
   119   60  126 1    
   120   61  127 1    
   121   61  128 1    
   122   61  129 1    
   123   62   63 2    
   124   62   64 am   BACKBONE|DICT|INTERRES
   125   64   65 1    
   126   64  130 1    
   127   65   66 1    
   128   65   69 1    
   129   65  131 1    
   130   66   67 am   BACKBONE|DICT|INTERRES
   131   66   68 2    
   132   67  132 1    
   133   67  133 1    
   134   69   70 1    
   135   69  134 1    
   136   69  135 1    
   137   70   71 1    
   138   71  136 1    
   139   71  137 1    
@<TRIPOS>SUBSTRUCTURE
     1 UNK         1 GROUP             0       ****    0 ROOT    
