@<TRIPOS>MOLECULE
3R136
137   139    1
SMALL
USER_CHARGES


@<TRIPOS>ATOM
      1 CA         30.0738   22.6924    4.4875 C.3       0 UNK        -0.1979 
      2 C          29.1056   21.8790    3.6400 C.2       0 UNK         0.4864 
      3 O          28.2464   21.1824    4.1833 O.2       0 UNK        -0.5359 
      4 N          29.2322   21.9617    2.3096 N.am      1 UNK        -0.4318 
      5 CA         28.3879   21.2741    1.3287 C.3       1 UNK         0.0824 
      6 C6         29.1379   21.0343   -0.0122 C.3       12 UNK        -0.0944 
      7 S7         29.8805   22.5305   -0.7526 S.3       12 UNK        -0.2672 
      8 C8         31.6147   22.4129   -0.2132 C.3       12 UNK         0.0333 
      9 C9         32.2286   23.7961   -0.0487 C.ar      12 UNK        -0.0807 
     10 C10        32.6845   24.2278    1.2009 C.ar      12 UNK        -0.0894 
     11 C11        33.2660   25.4915    1.3480 C.ar      12 UNK        -0.0804 
     12 C12        33.3715   26.3348    0.2368 C.ar      12 UNK        -0.0824 
     13 C13        32.9132   25.9168   -1.0171 C.ar      12 UNK        -0.0762 
     14 C14        32.3553   24.6426   -1.1537 C.ar      12 UNK        -0.0782 
     15 C15        33.0592   26.8142   -2.2386 C.3       12 UNK         0.0230 
     16 S16        31.4519   27.2599   -2.9737 S.3       12 UNK        -0.2608 
     17 C17        30.9051   28.6183   -1.8878 C.3       12 UNK        -0.0989 
     18 CA         29.3870   28.5406   -1.5599 C.3       5 UNK         0.0716 
     19 N          29.0117   27.3316   -0.8089 N.am      5 UNK        -0.4135 
     20 C          29.3690   27.0442    0.4525 C.2       4 UNK         0.5031 
     21 O          30.0958   27.7619    1.1373 O.2       4 UNK        -0.5229 
     22 CA         28.7610   25.7662    1.0641 C.3       4 UNK         0.0329 
     23 CB         29.0451   25.6382    2.5739 C.3       4 UNK        -0.2001 
     24 N          27.3186   25.6179    0.8274 N.am      4 UNK        -0.4303 
     25 C          26.3562   26.5048    1.1328 C.2       3 UNK         0.5044 
     26 O          26.5723   27.6466    1.5383 O.2       3 UNK        -0.5152 
     27 CA         24.8971   26.0444    0.9634 C.3       3 UNK         0.0319 
     28 CB         24.3726   26.4273   -0.4294 C.3       3 UNK        -0.2001 
     29 N          24.7199   24.6054    1.1734 N.am      3 UNK        -0.4354 
     30 C          24.8960   23.9723    2.3425 C.2       2 UNK         0.4964 
     31 O          25.1338   24.5451    3.4062 O.2       2 UNK        -0.5047 
     32 CA         24.8263   22.4350    2.3217 C.3       2 UNK         0.0288 
     33 CB         23.8527   21.8714    1.2612 C.3       2 UNK        -0.2113 
     34 N          26.1612   21.8387    2.1856 N.am      2 UNK        -0.4145 
     35 C          27.0312   21.9995    1.1764 C.2       1 UNK         0.5006 
     36 O          26.8081   22.7048    0.1894 O.2       1 UNK        -0.5103 
     37 C          28.8646   29.8247   -0.8709 C.2       5 UNK         0.5055 
     38 O          29.6107   30.7950   -0.7262 O.2       5 UNK        -0.5220 
     39 N          27.5978   29.7903   -0.4235 N.am      6 UNK        -0.4450 
     40 CA         26.9130   30.8165    0.3781 C.3       6 UNK         0.0367 
     41 CB         26.6612   32.0910   -0.4553 C.3       6 UNK        -0.1929 
     42 C          27.6546   31.0935    1.7014 C.2       6 UNK         0.5070 
     43 O          27.9246   32.2476    2.0370 O.2       6 UNK        -0.5237 
     44 N          28.0290   30.0035    2.3865 N.am      7 UNK        -0.4739 
     45 CA         28.8746   29.9185    3.5857 C.3       7 UNK         0.0276 
     46 CB         28.2234   30.6650    4.7700 C.3       7 UNK        -0.1927 
     47 C          30.3442   30.3462    3.3820 C.2       7 UNK         0.5013 
     48 O          31.0970   30.3550    4.3601 O.2       7 UNK        -0.5193 
     49 N          30.7309   30.7226    2.1514 N.am      8 UNK        -0.4253 
     50 CA         32.0660   31.1338    1.6900 C.3       8 UNK         0.0242 
     51 CB         33.0156   29.9200    1.7161 C.3       8 UNK        -0.2000 
     52 C          32.6818   32.3379    2.4336 C.2       8 UNK         0.4948 
     53 O          33.8717   32.6042    2.2577 O.2       8 UNK        -0.5275 
     54 N          31.8849   33.0084    3.2811 N.am      9 UNK        -0.4246 
     55 CA         32.2923   33.9400    4.3394 C.3       9 UNK         0.0261 
     56 CB         32.8140   35.2618    3.7365 C.3       9 UNK        -0.1959 
     57 C          33.2793   33.3054    5.3477 C.2       9 UNK         0.5033 
     58 O          34.1198   34.0184    5.9011 O.2       9 UNK        -0.5390 
     59 N          33.1801   31.9834    5.5599 N.am      10 UNK        -0.4215 
     60 CA         34.1237   31.2020    6.3552 C.3       10 UNK         0.0240 
     61 CB         35.3952   30.8970    5.5341 C.3       10 UNK        -0.1982 
     62 C          33.4591   29.9324    6.8999 C.2       10 UNK         0.4970 
     63 O          33.1290   29.8915    8.0857 O.2       10 UNK        -0.4916 
     64 N          33.3124   28.9115    6.0449 N.am      11 UNK        -0.4279 
     65 CA         32.8293   27.5723    6.4184 C.3       11 UNK         0.1003 
     66 C          31.3223   27.4714    6.7912 C.2       11 UNK         0.5709 
     67 N          30.4856   28.4333    6.4288 N.am      11 UNK        -0.7358 
     68 O          30.9135   26.5111    7.4401 O.2       11 UNK        -0.4999 
     69 C69        33.2559   26.4988    5.3836 C.3       12 UNK        -0.0954 
     70 S70        32.5524   26.7396    3.7166 S.3       12 UNK        -0.2268 
     71 C71        33.8165   25.9205    2.7006 C.3       12 UNK         0.0203 
     72 H72        29.5263   23.4064    5.1024 H         1 UNK         0.0888 
     73 H73        30.6364   22.0346    5.1493 H         1 UNK         0.0888 
     74 H74        30.7859   23.2480    3.8777 H         1 UNK         0.0888 
     75 H75        29.9232   22.5789    1.9092 H         1 UNK         0.3017 
     76 H76        28.1564   20.2816    1.7229 H         1 UNK         0.0873 
     77 H77        28.4624   20.5920   -0.7469 H         1 UNK         0.0745 
     78 H78        29.9223   20.2908    0.1371 H         1 UNK         0.0745 
     79 H79        32.1825   21.8448   -0.9513 H         1 UNK         0.0705 
     80 H80        31.6794   21.8544    0.7216 H         1 UNK         0.0705 
     81 H81        32.6057   23.5761    2.0600 H         1 UNK         0.1334 
     82 H82        33.8269   27.3086    0.3468 H         1 UNK         0.1417 
     83 H83        32.0083   24.3120   -2.1236 H         1 UNK         0.1562 
     84 H84        33.6496   26.2865   -2.9890 H         1 UNK         0.0748 
     85 H85        33.6148   27.7223   -1.9992 H         1 UNK         0.0748 
     86 H86        31.4946   28.6245   -0.9696 H         1 UNK         0.0940 
     87 H87        31.1424   29.5503   -2.4043 H         1 UNK         0.0940 
     88 H88        28.8505   28.4864   -2.5085 H         1 UNK         0.0703 
     89 H89        28.4144   26.6780   -1.2940 H         1 UNK         0.3081 
     90 H90        29.2470   24.9308    0.5650 H         1 UNK         0.0719 
     91 H91        28.5432   24.7717    3.0013 H         1 UNK         0.0809 
     92 H92        28.7080   26.5166    3.1244 H         1 UNK         0.0809 
     93 H93        30.1130   25.5258    2.7563 H         1 UNK         0.0809 
     94 H94        27.0279   24.7074    0.4821 H         1 UNK         0.2990 
     95 H95        24.2990   26.5691    1.7115 H         1 UNK         0.0690 
     96 H96        23.3172   26.1764   -0.5379 H         1 UNK         0.0788 
     97 H97        24.9220   25.9193   -1.2232 H         1 UNK         0.0788 
     98 H98        24.4672   27.5006   -0.6007 H         1 UNK         0.0788 
     99 H99        24.5711   24.0383    0.3505 H         1 UNK         0.2993 
    100 H100       24.4509   22.1336    3.3012 H         1 UNK         0.0949 
    101 H101       24.1931   22.0447    0.2401 H         1 UNK         0.0767 
    102 H102       23.7270   20.7955    1.3837 H         1 UNK         0.0767 
    103 H103       22.8640   22.3219    1.3597 H         1 UNK         0.0767 
    104 H104       26.4993   21.3319    2.9976 H         1 UNK         0.3013 
    105 H105       27.0876   28.9251   -0.5331 H         1 UNK         0.3121 
    106 H106       25.9416   30.4017    0.6523 H         1 UNK         0.0774 
    107 H107       26.0659   32.8116    0.1068 H         1 UNK         0.0815 
    108 H108       27.5922   32.5867   -0.7322 H         1 UNK         0.0815 
    109 H109       26.1159   31.8648   -1.3714 H         1 UNK         0.0815 
    110 H110       27.7256   29.1046    2.0158 H         1 UNK         0.2987 
    111 H111       28.9159   28.8589    3.8416 H         1 UNK         0.0949 
    112 H112       28.1847   31.7414    4.6026 H         1 UNK         0.0806 
    113 H113       27.2059   30.3161    4.9451 H         1 UNK         0.0806 
    114 H114       28.7792   30.5097    5.6943 H         1 UNK         0.0806 
    115 H115       30.0326   30.6813    1.4181 H         1 UNK         0.3010 
    116 H116       31.9436   31.4436    0.6514 H         1 UNK         0.0829 
    117 H117       32.5595   29.0578    1.2312 H         1 UNK         0.0813 
    118 H118       33.9492   30.1346    1.1952 H         1 UNK         0.0813 
    119 H119       33.2677   29.6295    2.7359 H         1 UNK         0.0813 
    120 H120       30.9223   32.7028    3.3234 H         1 UNK         0.3038 
    121 H121       31.3894   34.1689    4.9071 H         1 UNK         0.0769 
    122 H122       33.7592   35.1218    3.2113 H         1 UNK         0.0811 
    123 H123       32.0985   35.6868    3.0326 H         1 UNK         0.0811 
    124 H124       32.9827   36.0073    4.5145 H         1 UNK         0.0811 
    125 H125       32.4302   31.4598    5.1088 H         1 UNK         0.3204 
    126 H126       34.4204   31.7911    7.2260 H         1 UNK         0.0748 
    127 H127       36.0626   30.2245    6.0750 H         1 UNK         0.0771 
    128 H128       35.1630   30.4342    4.5743 H         1 UNK         0.0771 
    129 H129       35.9566   31.8086    5.3286 H         1 UNK         0.0771 
    130 H130       33.5501   29.0370    5.0730 H         1 UNK         0.2980 
    131 H131       33.3546   27.3167    7.3409 H         1 UNK         0.0545 
    132 H132       30.8108   29.1912    5.8372 H         1 UNK         0.3459 
    133 H133       29.5167   28.3667    6.6916 H         1 UNK         0.3459 
    134 H134       34.3442   26.4931    5.3056 H         1 UNK         0.0616 
    135 H135       32.9799   25.5014    5.7305 H         1 UNK         0.0616 
    136 H136       34.6636   26.5959    2.5717 H         1 UNK         0.0634 
    137 H137       34.1980   25.0460    3.2303 H         1 UNK         0.0634 
@<TRIPOS>BOND
     1    1    2 1    
     2    1   72 1    
     3    1   73 1    
     4    1   74 1    
     5    2    3 2    
     6    2    4 am   BACKBONE|DICT|INTERRES
     7    4    5 1    
     8    4   75 1    
     9    5    6 1    
    10    5   35 1    
    11    5   76 1    
    12    6    7 1    
    13    6   77 1    
    14    6   78 1    
    15    7    8 1    
    16    8    9 1    
    17    8   79 1    
    18    8   80 1    
    19    9   10 ar   
    20    9   14 ar   
    21   10   11 ar   
    22   10   81 1    
    23   11   12 ar   
    24   11   71 1    
    25   12   13 ar   
    26   12   82 1    
    27   13   14 ar   
    28   13   15 1    
    29   14   83 1    
    30   15   16 1    
    31   15   84 1    
    32   15   85 1    
    33   16   17 1    
    34   17   18 1    
    35   17   86 1    
    36   17   87 1    
    37   18   19 1    
    38   18   37 1    
    39   18   88 1    
    40   19   20 am   BACKBONE|DICT|INTERRES
    41   19   89 1    
    42   20   21 2    
    43   20   22 1    
    44   22   23 1    
    45   22   24 1    
    46   22   90 1    
    47   23   91 1    
    48   23   92 1    
    49   23   93 1    
    50   24   25 am   BACKBONE|DICT|INTERRES
    51   24   94 1    
    52   25   26 2    
    53   25   27 1    
    54   27   28 1    
    55   27   29 1    
    56   27   95 1    
    57   28   96 1    
    58   28   97 1    
    59   28   98 1    
    60   29   30 am   BACKBONE|DICT|INTERRES
    61   29   99 1    
    62   30   31 2    
    63   30   32 1    
    64   32   33 1    
    65   32   34 1    
    66   32  100 1    
    67   33  101 1    
    68   33  102 1    
    69   33  103 1    
    70   34   35 am   BACKBONE|DICT|INTERRES
    71   34  104 1    
    72   35   36 2    
    73   37   38 2    
    74   37   39 am   BACKBONE|DICT|INTERRES
    75   39   40 1    
    76   39  105 1    
    77   40   41 1    
    78   40   42 1    
    79   40  106 1    
    80   41  107 1    
    81   41  108 1    
    82   41  109 1    
    83   42   43 2    
    84   42   44 am   BACKBONE|DICT|INTERRES
    85   44   45 1    
    86   44  110 1    
    87   45   46 1    
    88   45   47 1    
    89   45  111 1    
    90   46  112 1    
    91   46  113 1    
    92   46  114 1    
    93   47   48 2    
    94   47   49 am   BACKBONE|DICT|INTERRES
    95   49   50 1    
    96   49  115 1    
    97   50   51 1    
    98   50   52 1    
    99   50  116 1    
   100   51  117 1    
   101   51  118 1    
   102   51  119 1    
   103   52   53 2    
   104   52   54 am   BACKBONE|DICT|INTERRES
   105   54   55 1    
   106   54  120 1    
   107   55   56 1    
   108   55   57 1    
   109   55  121 1    
   110   56  122 1    
   111   56  123 1    
   112   56  124 1    
   113   57   58 2    
   114   57   59 am   BACKBONE|DICT|INTERRES
   115   59   60 1    
   116   59  125 1    
   117   60   61 1    
   118   60   62 1    
   119   60  126 1    
   120   61  127 1    
   121   61  128 1    
   122   61  129 1    
   123   62   63 2    
   124   62   64 am   BACKBONE|DICT|INTERRES
   125   64   65 1    
   126   64  130 1    
   127   65   66 1    
   128   65   69 1    
   129   65  131 1    
   130   66   67 am   BACKBONE|DICT|INTERRES
   131   66   68 2    
   132   67  132 1    
   133   67  133 1    
   134   69   70 1    
   135   69  134 1    
   136   69  135 1    
   137   70   71 1    
   138   71  136 1    
   139   71  137 1    
@<TRIPOS>SUBSTRUCTURE
     1 UNK         1 GROUP             0       ****    0 ROOT    
