@<TRIPOS>MOLECULE
3R136
137   139    1
SMALL
USER_CHARGES


@<TRIPOS>ATOM
      1 CA         29.4973   24.0296   -4.2536 C.3       0 UNK        -0.1979 
      2 C          30.6536   25.0192   -4.1114 C.2       0 UNK         0.4864 
      3 O          31.5268   25.0279   -4.9781 O.2       0 UNK        -0.5359 
      4 N          30.7421   25.8557   -3.0636 N.am      1 UNK        -0.4318 
      5 CA         29.8219   26.0817   -1.9374 C.3       1 UNK         0.0824 
      6 C6         29.4677   24.7855   -1.1477 C.3       12 UNK        -0.0944 
      7 S7         29.8116   24.9283    0.6337 S.3       12 UNK        -0.2672 
      8 C8         31.4759   24.2020    0.7385 C.3       12 UNK         0.0333 
      9 C9         31.8693   23.9973    2.1915 C.ar      12 UNK        -0.0807 
     10 C10        32.6182   24.9627    2.8719 C.ar      12 UNK        -0.0894 
     11 C11        32.9447   24.7876    4.2213 C.ar      12 UNK        -0.0804 
     12 C12        32.4862   23.6470    4.8925 C.ar      12 UNK        -0.0824 
     13 C13        31.7170   22.6866    4.2276 C.ar      12 UNK        -0.0762 
     14 C14        31.4498   22.8474    2.8655 C.ar      12 UNK        -0.0782 
     15 C15        31.1429   21.4964    4.9892 C.3       12 UNK         0.0230 
     16 S16        29.3129   21.4612    4.9707 S.3       12 UNK        -0.2608 
     17 C17        28.8821   23.1320    5.5719 C.3       12 UNK        -0.0989 
     18 CA         28.5016   24.0716    4.3939 C.3       5 UNK         0.0716 
     19 N          27.2470   23.7275    3.7231 N.am      5 UNK        -0.4135 
     20 C          26.0070   23.8156    4.2166 C.2       4 UNK         0.5031 
     21 O          25.7357   24.1489    5.3717 O.2       4 UNK        -0.5229 
     22 CA         24.8739   23.5054    3.2185 C.3       4 UNK         0.0329 
     23 CB         23.6202   22.9533    3.9215 C.3       4 UNK        -0.2001 
     24 N          24.4982   24.6841    2.4315 N.am      4 UNK        -0.4303 
     25 C          25.2791   25.3130    1.5421 C.2       3 UNK         0.5044 
     26 O          26.4197   24.9422    1.2549 O.2       3 UNK        -0.5152 
     27 CA         24.6821   26.5463    0.8468 C.3       3 UNK         0.0319 
     28 CB         23.9846   27.5120    1.8264 C.3       3 UNK        -0.2001 
     29 N          25.7436   27.2478    0.1285 N.am      3 UNK        -0.4354 
     30 C          25.5932   27.9554   -0.9964 C.2       2 UNK         0.4964 
     31 O          24.5076   28.1434   -1.5471 O.2       2 UNK        -0.5047 
     32 CA         26.8632   28.5471   -1.6262 C.3       2 UNK         0.0288 
     33 CB         27.1509   29.9430   -1.0458 C.3       2 UNK        -0.2113 
     34 N          28.0276   27.6811   -1.4114 N.am      2 UNK        -0.4145 
     35 C          28.5850   26.9125   -2.3553 C.2       1 UNK         0.5006 
     36 O          28.1689   26.8634   -3.5156 O.2       1 UNK        -0.5103 
     37 C          28.5699   25.5704    4.7366 C.2       5 UNK         0.5055 
     38 O          28.7407   25.9411    5.8985 O.2       5 UNK        -0.5220 
     39 N          28.4501   26.3976    3.6938 N.am      6 UNK        -0.4450 
     40 CA         28.7275   27.8267    3.7032 C.3       6 UNK         0.0367 
     41 CB         27.5101   28.6199    4.2039 C.3       6 UNK        -0.1929 
     42 C          29.0889   28.2038    2.2675 C.2       6 UNK         0.5070 
     43 O          28.3644   27.8131    1.3494 O.2       6 UNK        -0.5237 
     44 N          30.1922   28.9303    2.0895 N.am      7 UNK        -0.4739 
     45 CA         30.6910   29.4083    0.8029 C.3       7 UNK         0.0276 
     46 CB         31.9541   28.6023    0.4399 C.3       7 UNK        -0.1927 
     47 C          30.9538   30.9207    0.8923 C.2       7 UNK         0.5013 
     48 O          30.4600   31.5809    1.8107 O.2       7 UNK        -0.5193 
     49 N          31.7159   31.4564   -0.0711 N.am      8 UNK        -0.4253 
     50 CA         32.1808   32.8443   -0.0870 C.3       8 UNK         0.0242 
     51 CB         32.7947   33.1608   -1.4619 C.3       8 UNK        -0.2000 
     52 C          33.1920   33.0711    1.0488 C.2       8 UNK         0.4948 
     53 O          34.3310   32.6093    0.9460 O.2       8 UNK        -0.5275 
     54 N          32.7336   33.7140    2.1316 N.am      9 UNK        -0.4246 
     55 CA         33.4143   33.9696    3.4101 C.3       9 UNK         0.0261 
     56 CB         34.6846   34.8235    3.2259 C.3       9 UNK        -0.1959 
     57 C          33.7053   32.7000    4.2329 C.2       9 UNK         0.5033 
     58 O          33.3691   32.6639    5.4185 O.2       9 UNK        -0.5390 
     59 N          34.3093   31.6847    3.6018 N.am      10 UNK        -0.4215 
     60 CA         34.6236   30.3779    4.1799 C.3       10 UNK         0.0240 
     61 CB         35.3823   29.5293    3.1466 C.3       10 UNK        -0.1982 
     62 C          33.3542   29.6592    4.6629 C.2       10 UNK         0.4970 
     63 O          32.4641   29.3869    3.8553 O.2       10 UNK        -0.4916 
     64 N          33.2941   29.3973    5.9733 N.am      11 UNK        -0.4279 
     65 CA         32.1405   28.8182    6.6822 C.3       11 UNK         0.1003 
     66 C          30.8643   29.7187    6.6831 C.2       11 UNK         0.5709 
     67 N          30.9560   31.0047    6.3605 N.am      11 UNK        -0.7358 
     68 O          29.7769   29.2616    7.0236 O.2       11 UNK        -0.4999 
     69 C69        31.8559   27.3419    6.2761 C.3       12 UNK        -0.0954 
     70 S70        33.2730   26.2445    6.6101 S.3       12 UNK        -0.2268 
     71 C71        33.8284   25.8148    4.9260 C.3       12 UNK         0.0203 
     72 H72        29.8037   23.0452   -3.9013 H         1 UNK         0.0888 
     73 H73        28.6036   24.3238   -3.7094 H         1 UNK         0.0888 
     74 H74        29.2166   23.9368   -5.3023 H         1 UNK         0.0888 
     75 H75        31.5345   26.4820   -3.0619 H         1 UNK         0.3017 
     76 H76        30.3946   26.7367   -1.2805 H         1 UNK         0.0873 
     77 H77        30.0239   23.9250   -1.5198 H         1 UNK         0.0745 
     78 H78        28.4155   24.5158   -1.2612 H         1 UNK         0.0745 
     79 H79        31.4974   23.2452    0.2146 H         1 UNK         0.0705 
     80 H80        32.1901   24.8528    0.2318 H         1 UNK         0.0705 
     81 H81        32.9492   25.8493    2.3480 H         1 UNK         0.1334 
     82 H82        32.7201   23.5126    5.9396 H         1 UNK         0.1417 
     83 H83        30.8537   22.1083    2.3470 H         1 UNK         0.1562 
     84 H84        31.4818   21.5000    6.0263 H         1 UNK         0.0748 
     85 H85        31.5197   20.5733    4.5467 H         1 UNK         0.0748 
     86 H86        29.7325   23.5268    6.1311 H         1 UNK         0.0940 
     87 H87        28.0639   23.0575    6.2895 H         1 UNK         0.0940 
     88 H88        29.2568   23.9526    3.6226 H         1 UNK         0.0703 
     89 H89        27.3271   23.5490    2.7295 H         1 UNK         0.3081 
     90 H90        25.2313   22.7366    2.5297 H         1 UNK         0.0719 
     91 H91        23.1706   23.6897    4.5890 H         1 UNK         0.0809 
     92 H92        22.8623   22.6475    3.2000 H         1 UNK         0.0809 
     93 H93        23.8657   22.0767    4.5226 H         1 UNK         0.0809 
     94 H94        23.5827   25.0670    2.6164 H         1 UNK         0.2990 
     95 H95        23.9489   26.1785    0.1261 H         1 UNK         0.0690 
     96 H96        23.6499   28.4175    1.3200 H         1 UNK         0.0788 
     97 H97        24.6473   27.8116    2.6373 H         1 UNK         0.0788 
     98 H98        23.1005   27.0584    2.2750 H         1 UNK         0.0788 
     99 H99        26.6744   27.1269    0.5191 H         1 UNK         0.2993 
    100 H100       26.6698   28.6664   -2.6946 H         1 UNK         0.0949 
    101 H101       26.3108   30.6167   -1.2200 H         1 UNK         0.0767 
    102 H102       27.3224   29.9104    0.0307 H         1 UNK         0.0767 
    103 H103       28.0279   30.3924   -1.5118 H         1 UNK         0.0767 
    104 H104       28.3683   27.6339   -0.4513 H         1 UNK         0.3013 
    105 H105       28.2995   26.0147    2.7657 H         1 UNK         0.3121 
    106 H106       29.5797   28.0273    4.3538 H         1 UNK         0.0774 
    107 H107       27.7247   29.6891    4.2150 H         1 UNK         0.0815 
    108 H108       26.6414   28.4661    3.5654 H         1 UNK         0.0815 
    109 H109       27.2396   28.3328    5.2201 H         1 UNK         0.0815 
    110 H110       30.7473   29.2234    2.8900 H         1 UNK         0.2987 
    111 H111       29.9408   29.2653    0.0243 H         1 UNK         0.0949 
    112 H112       31.7770   27.5303    0.5258 H         1 UNK         0.0806 
    113 H113       32.2754   28.7926   -0.5842 H         1 UNK         0.0806 
    114 H114       32.7859   28.8467    1.1006 H         1 UNK         0.0806 
    115 H115       32.0993   30.8487   -0.7798 H         1 UNK         0.3010 
    116 H116       31.3216   33.5027    0.0596 H         1 UNK         0.0829 
    117 H117       32.0607   33.0473   -2.2600 H         1 UNK         0.0813 
    118 H118       33.1556   34.1896   -1.4984 H         1 UNK         0.0813 
    119 H119       33.6412   32.5115   -1.6899 H         1 UNK         0.0813 
    120 H120       31.7546   33.9687    2.1250 H         1 UNK         0.3038 
    121 H121       32.7114   34.5623    3.9978 H         1 UNK         0.0769 
    122 H122       35.4550   34.3007    2.6587 H         1 UNK         0.0811 
    123 H123       35.1182   35.0851    4.1920 H         1 UNK         0.0811 
    124 H124       34.4626   35.7564    2.7077 H         1 UNK         0.0811 
    125 H125       34.5035   31.8163    2.6110 H         1 UNK         0.3204 
    126 H126       35.2854   30.5462    5.0320 H         1 UNK         0.0748 
    127 H127       36.3213   30.0025    2.8588 H         1 UNK         0.0771 
    128 H128       35.6254   28.5456    3.5503 H         1 UNK         0.0771 
    129 H129       34.7958   29.3759    2.2407 H         1 UNK         0.0771 
    130 H130       34.0624   29.6836    6.5620 H         1 UNK         0.2980 
    131 H131       32.4393   28.8006    7.7307 H         1 UNK         0.0545 
    132 H132       30.1258   31.5741    6.3840 H         1 UNK         0.3459 
    133 H133       31.8421   31.4168    6.0923 H         1 UNK         0.3459 
    134 H134       31.0156   26.9463    6.8476 H         1 UNK         0.0616 
    135 H135       31.5711   27.2667    5.2266 H         1 UNK         0.0616 
    136 H136       33.9056   26.7289    4.3363 H         1 UNK         0.0634 
    137 H137       34.8375   25.4067    4.9921 H         1 UNK         0.0634 
@<TRIPOS>BOND
     1    1    2 1    
     2    1   72 1    
     3    1   73 1    
     4    1   74 1    
     5    2    3 2    
     6    2    4 am   BACKBONE|DICT|INTERRES
     7    4    5 1    
     8    4   75 1    
     9    5    6 1    
    10    5   35 1    
    11    5   76 1    
    12    6    7 1    
    13    6   77 1    
    14    6   78 1    
    15    7    8 1    
    16    8    9 1    
    17    8   79 1    
    18    8   80 1    
    19    9   10 ar   
    20    9   14 ar   
    21   10   11 ar   
    22   10   81 1    
    23   11   12 ar   
    24   11   71 1    
    25   12   13 ar   
    26   12   82 1    
    27   13   14 ar   
    28   13   15 1    
    29   14   83 1    
    30   15   16 1    
    31   15   84 1    
    32   15   85 1    
    33   16   17 1    
    34   17   18 1    
    35   17   86 1    
    36   17   87 1    
    37   18   19 1    
    38   18   37 1    
    39   18   88 1    
    40   19   20 am   BACKBONE|DICT|INTERRES
    41   19   89 1    
    42   20   21 2    
    43   20   22 1    
    44   22   23 1    
    45   22   24 1    
    46   22   90 1    
    47   23   91 1    
    48   23   92 1    
    49   23   93 1    
    50   24   25 am   BACKBONE|DICT|INTERRES
    51   24   94 1    
    52   25   26 2    
    53   25   27 1    
    54   27   28 1    
    55   27   29 1    
    56   27   95 1    
    57   28   96 1    
    58   28   97 1    
    59   28   98 1    
    60   29   30 am   BACKBONE|DICT|INTERRES
    61   29   99 1    
    62   30   31 2    
    63   30   32 1    
    64   32   33 1    
    65   32   34 1    
    66   32  100 1    
    67   33  101 1    
    68   33  102 1    
    69   33  103 1    
    70   34   35 am   BACKBONE|DICT|INTERRES
    71   34  104 1    
    72   35   36 2    
    73   37   38 2    
    74   37   39 am   BACKBONE|DICT|INTERRES
    75   39   40 1    
    76   39  105 1    
    77   40   41 1    
    78   40   42 1    
    79   40  106 1    
    80   41  107 1    
    81   41  108 1    
    82   41  109 1    
    83   42   43 2    
    84   42   44 am   BACKBONE|DICT|INTERRES
    85   44   45 1    
    86   44  110 1    
    87   45   46 1    
    88   45   47 1    
    89   45  111 1    
    90   46  112 1    
    91   46  113 1    
    92   46  114 1    
    93   47   48 2    
    94   47   49 am   BACKBONE|DICT|INTERRES
    95   49   50 1    
    96   49  115 1    
    97   50   51 1    
    98   50   52 1    
    99   50  116 1    
   100   51  117 1    
   101   51  118 1    
   102   51  119 1    
   103   52   53 2    
   104   52   54 am   BACKBONE|DICT|INTERRES
   105   54   55 1    
   106   54  120 1    
   107   55   56 1    
   108   55   57 1    
   109   55  121 1    
   110   56  122 1    
   111   56  123 1    
   112   56  124 1    
   113   57   58 2    
   114   57   59 am   BACKBONE|DICT|INTERRES
   115   59   60 1    
   116   59  125 1    
   117   60   61 1    
   118   60   62 1    
   119   60  126 1    
   120   61  127 1    
   121   61  128 1    
   122   61  129 1    
   123   62   63 2    
   124   62   64 am   BACKBONE|DICT|INTERRES
   125   64   65 1    
   126   64  130 1    
   127   65   66 1    
   128   65   69 1    
   129   65  131 1    
   130   66   67 am   BACKBONE|DICT|INTERRES
   131   66   68 2    
   132   67  132 1    
   133   67  133 1    
   134   69   70 1    
   135   69  134 1    
   136   69  135 1    
   137   70   71 1    
   138   71  136 1    
   139   71  137 1    
@<TRIPOS>SUBSTRUCTURE
     1 UNK         1 GROUP             0       ****    0 ROOT    
