@<TRIPOS>MOLECULE
3R136
137   139    1
SMALL
USER_CHARGES


@<TRIPOS>ATOM
      1 CA         30.0545   17.0383    0.3747 C.3       0 UNK        -0.1979 
      2 C          30.2522   18.5175    0.0765 C.2       0 UNK         0.4864 
      3 O          31.3880   18.9562   -0.1138 O.2       0 UNK        -0.5359 
      4 N          29.1579   19.2853    0.0324 N.am      1 UNK        -0.4318 
      5 CA         29.1271   20.7123   -0.2839 C.3       1 UNK         0.0824 
      6 C6         29.6426   21.6077    0.8797 C.3       12 UNK        -0.0944 
      7 S7         30.4433   23.1323    0.2638 S.3       12 UNK        -0.2672 
      8 C8         31.9793   23.1983    1.2469 C.3       12 UNK         0.0333 
      9 C9         31.8017   23.9598    2.5565 C.ar      12 UNK        -0.0807 
     10 C10        32.6209   25.0557    2.8498 C.ar      12 UNK        -0.0894 
     11 C11        32.4716   25.7524    4.0532 C.ar      12 UNK        -0.0804 
     12 C12        31.4885   25.3548    4.9639 C.ar      12 UNK        -0.0824 
     13 C13        30.6514   24.2745    4.6745 C.ar      12 UNK        -0.0762 
     14 C14        30.8292   23.5693    3.4825 C.ar      12 UNK        -0.0782 
     15 C15        29.5410   23.8742    5.6362 C.3       12 UNK         0.0230 
     16 S16        28.2572   25.1604    5.7950 S.3       12 UNK        -0.2608 
     17 C17        27.7684   25.4804    4.0612 C.3       12 UNK        -0.0989 
     18 CA         28.3373   26.8196    3.5189 C.3       5 UNK         0.0716 
     19 N          28.3633   26.8325    2.0516 N.am      5 UNK        -0.4135 
     20 C          28.9055   27.8076    1.3045 C.2       4 UNK         0.5031 
     21 O          29.4710   28.7938    1.7759 O.2       4 UNK        -0.5229 
     22 CA         28.7195   27.7130   -0.2229 C.3       4 UNK         0.0329 
     23 CB         29.8773   26.9209   -0.8506 C.3       4 UNK        -0.2001 
     24 N          27.4478   27.1107   -0.6437 N.am      4 UNK        -0.4303 
     25 C          26.2209   27.4701   -0.2325 C.2       3 UNK         0.5044 
     26 O          26.0079   28.4143    0.5272 O.2       3 UNK        -0.5152 
     27 CA         25.0266   26.6162   -0.7018 C.3       3 UNK         0.0319 
     28 CB         24.2112   27.3786   -1.7612 C.3       3 UNK        -0.2001 
     29 N          25.3651   25.2842   -1.2240 N.am      3 UNK        -0.4354 
     30 C          26.0077   24.3064   -0.5660 C.2       2 UNK         0.4964 
     31 O          26.4676   24.4373    0.5717 O.2       2 UNK        -0.5047 
     32 CA         26.1804   22.9674   -1.3072 C.3       2 UNK         0.0288 
     33 CB         26.0917   23.0752   -2.8471 C.3       2 UNK        -0.2113 
     34 N          27.4640   22.3808   -0.9338 N.am      2 UNK        -0.4145 
     35 C          27.6993   21.0812   -0.7335 C.2       1 UNK         0.5006 
     36 O          26.8484   20.1967   -0.8800 O.2       1 UNK        -0.5103 
     37 C          27.6019   28.0427    4.1233 C.2       5 UNK         0.5055 
     38 O          27.9946   28.5176    5.1911 O.2       5 UNK        -0.5220 
     39 N          26.5727   28.5556    3.4288 N.am      6 UNK        -0.4450 
     40 CA         25.7947   29.7204    3.8583 C.3       6 UNK         0.0367 
     41 CB         24.4174   29.7017    3.1744 C.3       6 UNK        -0.1929 
     42 C          26.5092   31.0592    3.6012 C.2       6 UNK         0.5070 
     43 O          26.1264   32.0569    4.2135 O.2       6 UNK        -0.5237 
     44 N          27.5210   31.0793    2.7183 N.am      7 UNK        -0.4739 
     45 CA         28.3472   32.2638    2.4584 C.3       7 UNK         0.0276 
     46 CB         29.1021   32.1002    1.1291 C.3       7 UNK        -0.1927 
     47 C          29.3203   32.5550    3.6145 C.2       7 UNK         0.5013 
     48 O          29.5695   33.7272    3.9032 O.2       7 UNK        -0.5193 
     49 N          29.8040   31.4837    4.2656 N.am      8 UNK        -0.4253 
     50 CA         30.6882   31.4572    5.4378 C.3       8 UNK         0.0242 
     51 CB         29.9971   32.1274    6.6476 C.3       8 UNK        -0.2000 
     52 C          32.0953   32.0344    5.1736 C.2       8 UNK         0.4948 
     53 O          32.4155   32.4286    4.0484 O.2       8 UNK        -0.5275 
     54 N          32.9294   32.0380    6.2255 N.am      9 UNK        -0.4246 
     55 CA         34.3323   32.4706    6.2444 C.3       9 UNK         0.0261 
     56 CB         34.4389   34.0024    6.0568 C.3       9 UNK        -0.1959 
     57 C          35.1820   31.6518    5.2540 C.2       9 UNK         0.5033 
     58 O          35.4876   30.4941    5.5440 O.2       9 UNK        -0.5390 
     59 N          35.5287   32.2508    4.1075 N.am      10 UNK        -0.4215 
     60 CA         36.2172   31.5910    2.9959 C.3       10 UNK         0.0240 
     61 CB         36.8261   32.6627    2.0763 C.3       10 UNK        -0.1982 
     62 C          35.3091   30.6418    2.1891 C.2       10 UNK         0.4970 
     63 O          35.8381   29.7741    1.4927 O.2       10 UNK        -0.4916 
     64 N          33.9823   30.8232    2.2820 N.am      11 UNK        -0.4279 
     65 CA         32.9441   30.0300    1.5997 C.3       11 UNK         0.1003 
     66 C          32.9793   30.1456    0.0454 C.2       11 UNK         0.5709 
     67 N          33.4437   31.2607   -0.5101 N.am      11 UNK        -0.7358 
     68 O          32.5728   29.2347   -0.6725 O.2       11 UNK        -0.4999 
     69 C69        32.8629   28.5651    2.1192 C.3       12 UNK        -0.0954 
     70 S70        32.5550   28.5034    3.9174 S.3       12 UNK        -0.2268 
     71 C71        33.3617   26.9420    4.3742 C.3       12 UNK         0.0203 
     72 H72        29.0039   16.7917    0.5326 H         1 UNK         0.0888 
     73 H73        30.4241   16.4347   -0.4551 H         1 UNK         0.0888 
     74 H74        30.6074   16.7600    1.2724 H         1 UNK         0.0888 
     75 H75        28.2352   18.8763    0.1280 H         1 UNK         0.3017 
     76 H76        29.7675   20.8512   -1.1584 H         1 UNK         0.0873 
     77 H77        28.8377   21.8709    1.5699 H         1 UNK         0.0745 
     78 H78        30.3695   21.0580    1.4790 H         1 UNK         0.0745 
     79 H79        32.3499   22.1929    1.4506 H         1 UNK         0.0705 
     80 H80        32.7426   23.6800    0.6340 H         1 UNK         0.0705 
     81 H81        33.3767   25.3696    2.1429 H         1 UNK         0.1334 
     82 H82        31.3551   25.9036    5.8864 H         1 UNK         0.1417 
     83 H83        30.1930   22.7241    3.2698 H         1 UNK         0.1562 
     84 H84        29.9713   23.6801    6.6197 H         1 UNK         0.0748 
     85 H85        29.0675   22.9432    5.3206 H         1 UNK         0.0748 
     86 H86        26.6789   25.4615    3.9907 H         1 UNK         0.0940 
     87 H87        28.1104   24.6464    3.4460 H         1 UNK         0.0940 
     88 H88        29.3816   26.8987    3.8298 H         1 UNK         0.0703 
     89 H89        27.8961   26.0678    1.5809 H         1 UNK         0.3081 
     90 H90        28.7451   28.7325   -0.6160 H         1 UNK         0.0719 
     91 H91        29.8325   25.8646   -0.5816 H         1 UNK         0.0809 
     92 H92        29.8665   26.9955   -1.9393 H         1 UNK         0.0809 
     93 H93        30.8446   27.2963   -0.5107 H         1 UNK         0.0809 
     94 H94        27.5126   26.3237   -1.2718 H         1 UNK         0.2990 
     95 H95        24.3886   26.4640    0.1730 H         1 UNK         0.0690 
     96 H96        23.2970   26.8433   -2.0206 H         1 UNK         0.0788 
     97 H97        24.7851   27.5339   -2.6774 H         1 UNK         0.0788 
     98 H98        23.9118   28.3626   -1.3939 H         1 UNK         0.0788 
     99 H99        25.0440   25.0823   -2.1603 H         1 UNK         0.2993 
    100 H100       25.3708   22.3214   -0.9553 H         1 UNK         0.0949 
    101 H101       26.2711   22.1069   -3.3192 H         1 UNK         0.0767 
    102 H102       25.1014   23.3987   -3.1709 H         1 UNK         0.0767 
    103 H103       26.8267   23.7773   -3.2484 H         1 UNK         0.0767 
    104 H104       28.1996   23.0380   -0.7030 H         1 UNK         0.3013 
    105 H105       26.3544   28.1885    2.5067 H         1 UNK         0.3121 
    106 H106       25.6309   29.6434    4.9355 H         1 UNK         0.0774 
    107 H107       24.4955   29.8575    2.0984 H         1 UNK         0.0815 
    108 H108       23.7798   30.4948    3.5677 H         1 UNK         0.0815 
    109 H109       23.8996   28.7573    3.3426 H         1 UNK         0.0815 
    110 H110       27.8020   30.2156    2.2703 H         1 UNK         0.2987 
    111 H111       27.6844   33.1268    2.3611 H         1 UNK         0.0949 
    112 H112       29.8214   31.2832    1.1657 H         1 UNK         0.0806 
    113 H113       28.4174   31.9086    0.3029 H         1 UNK         0.0806 
    114 H114       29.6586   33.0067    0.8871 H         1 UNK         0.0806 
    115 H115       29.5421   30.5748    3.9061 H         1 UNK         0.3010 
    116 H116       30.8258   30.4001    5.6740 H         1 UNK         0.0829 
    117 H117       29.9343   33.2106    6.5299 H         1 UNK         0.0813 
    118 H118       28.9834   31.7477    6.7820 H         1 UNK         0.0813 
    119 H119       30.5325   31.9321    7.5770 H         1 UNK         0.0813 
    120 H120       32.5906   31.6508    7.0951 H         1 UNK         0.3038 
    121 H121       34.7170   32.2376    7.2386 H         1 UNK         0.0769 
    122 H122       35.4795   34.3304    6.0774 H         1 UNK         0.0811 
    123 H123       34.0002   34.3439    5.1187 H         1 UNK         0.0811 
    124 H124       33.9252   34.5269    6.8628 H         1 UNK         0.0811 
    125 H125       35.2063   33.1953    3.9513 H         1 UNK         0.3204 
    126 H126       37.0326   30.9903    3.4049 H         1 UNK         0.0748 
    127 H127       37.3712   32.2042    1.2496 H         1 UNK         0.0771 
    128 H128       36.0606   33.3079    1.6437 H         1 UNK         0.0771 
    129 H129       37.5325   33.2938    2.6161 H         1 UNK         0.0771 
    130 H130       33.6198   31.5449    2.9004 H         1 UNK         0.2980 
    131 H131       32.0017   30.5046    1.8752 H         1 UNK         0.0545 
    132 H132       33.4643   31.3378   -1.5145 H         1 UNK         0.3459 
    133 H133       33.7746   32.0211    0.0635 H         1 UNK         0.3459 
    134 H134       32.0528   28.0215    1.6310 H         1 UNK         0.0616 
    135 H135       33.7801   28.0250    1.8802 H         1 UNK         0.0616 
    136 H136       33.5758   26.9614    5.4437 H         1 UNK         0.0634 
    137 H137       34.3272   26.8567    3.8735 H         1 UNK         0.0634 
@<TRIPOS>BOND
     1    1    2 1    
     2    1   72 1    
     3    1   73 1    
     4    1   74 1    
     5    2    3 2    
     6    2    4 am   BACKBONE|DICT|INTERRES
     7    4    5 1    
     8    4   75 1    
     9    5    6 1    
    10    5   35 1    
    11    5   76 1    
    12    6    7 1    
    13    6   77 1    
    14    6   78 1    
    15    7    8 1    
    16    8    9 1    
    17    8   79 1    
    18    8   80 1    
    19    9   10 ar   
    20    9   14 ar   
    21   10   11 ar   
    22   10   81 1    
    23   11   12 ar   
    24   11   71 1    
    25   12   13 ar   
    26   12   82 1    
    27   13   14 ar   
    28   13   15 1    
    29   14   83 1    
    30   15   16 1    
    31   15   84 1    
    32   15   85 1    
    33   16   17 1    
    34   17   18 1    
    35   17   86 1    
    36   17   87 1    
    37   18   19 1    
    38   18   37 1    
    39   18   88 1    
    40   19   20 am   BACKBONE|DICT|INTERRES
    41   19   89 1    
    42   20   21 2    
    43   20   22 1    
    44   22   23 1    
    45   22   24 1    
    46   22   90 1    
    47   23   91 1    
    48   23   92 1    
    49   23   93 1    
    50   24   25 am   BACKBONE|DICT|INTERRES
    51   24   94 1    
    52   25   26 2    
    53   25   27 1    
    54   27   28 1    
    55   27   29 1    
    56   27   95 1    
    57   28   96 1    
    58   28   97 1    
    59   28   98 1    
    60   29   30 am   BACKBONE|DICT|INTERRES
    61   29   99 1    
    62   30   31 2    
    63   30   32 1    
    64   32   33 1    
    65   32   34 1    
    66   32  100 1    
    67   33  101 1    
    68   33  102 1    
    69   33  103 1    
    70   34   35 am   BACKBONE|DICT|INTERRES
    71   34  104 1    
    72   35   36 2    
    73   37   38 2    
    74   37   39 am   BACKBONE|DICT|INTERRES
    75   39   40 1    
    76   39  105 1    
    77   40   41 1    
    78   40   42 1    
    79   40  106 1    
    80   41  107 1    
    81   41  108 1    
    82   41  109 1    
    83   42   43 2    
    84   42   44 am   BACKBONE|DICT|INTERRES
    85   44   45 1    
    86   44  110 1    
    87   45   46 1    
    88   45   47 1    
    89   45  111 1    
    90   46  112 1    
    91   46  113 1    
    92   46  114 1    
    93   47   48 2    
    94   47   49 am   BACKBONE|DICT|INTERRES
    95   49   50 1    
    96   49  115 1    
    97   50   51 1    
    98   50   52 1    
    99   50  116 1    
   100   51  117 1    
   101   51  118 1    
   102   51  119 1    
   103   52   53 2    
   104   52   54 am   BACKBONE|DICT|INTERRES
   105   54   55 1    
   106   54  120 1    
   107   55   56 1    
   108   55   57 1    
   109   55  121 1    
   110   56  122 1    
   111   56  123 1    
   112   56  124 1    
   113   57   58 2    
   114   57   59 am   BACKBONE|DICT|INTERRES
   115   59   60 1    
   116   59  125 1    
   117   60   61 1    
   118   60   62 1    
   119   60  126 1    
   120   61  127 1    
   121   61  128 1    
   122   61  129 1    
   123   62   63 2    
   124   62   64 am   BACKBONE|DICT|INTERRES
   125   64   65 1    
   126   64  130 1    
   127   65   66 1    
   128   65   69 1    
   129   65  131 1    
   130   66   67 am   BACKBONE|DICT|INTERRES
   131   66   68 2    
   132   67  132 1    
   133   67  133 1    
   134   69   70 1    
   135   69  134 1    
   136   69  135 1    
   137   70   71 1    
   138   71  136 1    
   139   71  137 1    
@<TRIPOS>SUBSTRUCTURE
     1 UNK         1 GROUP             0       ****    0 ROOT    
