@<TRIPOS>MOLECULE
3R136
137   139    1
SMALL
USER_CHARGES


@<TRIPOS>ATOM
      1 CA         31.1615   27.5108   -0.8851 C.3       0 UNK        -0.1979 
      2 C          30.5671   26.1594   -1.2459 C.2       0 UNK         0.4864 
      3 O          30.7510   25.6923   -2.3700 O.2       0 UNK        -0.5359 
      4 N          29.8393   25.5335   -0.3099 N.am      1 UNK        -0.4318 
      5 CA         29.2233   24.2000   -0.3898 C.3       1 UNK         0.0824 
      6 C6         30.2369   23.0669   -0.7296 C.3       12 UNK        -0.0944 
      7 S7         30.0963   21.6442    0.4020 S.3       12 UNK        -0.2672 
      8 C8         31.6490   21.7705    1.3489 C.3       12 UNK         0.0333 
      9 C9         31.6282   22.9301    2.3358 C.ar      12 UNK        -0.0807 
     10 C10        32.2009   24.1618    1.9999 C.ar      12 UNK        -0.0894 
     11 C11        32.1849   25.2244    2.9090 C.ar      12 UNK        -0.0804 
     12 C12        31.6097   25.0395    4.1689 C.ar      12 UNK        -0.0824 
     13 C13        31.0377   23.8139    4.5185 C.ar      12 UNK        -0.0762 
     14 C14        31.0474   22.7631    3.5968 C.ar      12 UNK        -0.0782 
     15 C15        30.4112   23.6235    5.8917 C.3       12 UNK         0.0230 
     16 S16        28.6216   23.9559    5.8675 S.3       12 UNK        -0.2608 
     17 C17        28.5711   25.7793    5.7650 C.3       12 UNK        -0.0989 
     18 CA         28.3440   26.2986    4.3233 C.3       5 UNK         0.0716 
     19 N          27.1531   25.7098    3.7017 N.am      5 UNK        -0.4135 
     20 C          26.8484   25.7957    2.4016 C.2       4 UNK         0.5031 
     21 O          27.5382   26.4130    1.5848 O.2       4 UNK        -0.5229 
     22 CA         25.5871   25.0365    1.9462 C.3       4 UNK         0.0329 
     23 CB         24.4161   25.1374    2.9509 C.3       4 UNK        -0.2001 
     24 N          25.1605   25.4214    0.5976 N.am      4 UNK        -0.4303 
     25 C          24.6806   26.6078    0.1927 C.2       3 UNK         0.5044 
     26 O          24.4635   27.5642    0.9387 O.2       3 UNK        -0.5152 
     27 CA         24.4362   26.7338   -1.3189 C.3       3 UNK         0.0319 
     28 CB         24.0713   28.1591   -1.7777 C.3       3 UNK        -0.2001 
     29 N          25.6273   26.2648   -2.0262 N.am      3 UNK        -0.4354 
     30 C          25.6299   25.3944   -3.0421 C.2       2 UNK         0.4964 
     31 O          24.6111   24.9854   -3.6002 O.2       2 UNK        -0.5047 
     32 CA         27.0007   24.8643   -3.5025 C.3       2 UNK         0.0288 
     33 CB         27.5245   25.6958   -4.6846 C.3       2 UNK        -0.2113 
     34 N          28.0322   24.8197   -2.4581 N.am      2 UNK        -0.4145 
     35 C          27.9748   24.1462   -1.2994 C.2       1 UNK         0.5006 
     36 O          26.9834   23.5149   -0.9287 O.2       1 UNK        -0.5103 
     37 C          28.3402   27.8409    4.2975 C.2       5 UNK         0.5055 
     38 O          29.4100   28.4488    4.2877 O.2       5 UNK        -0.5220 
     39 N          27.1435   28.4448    4.2581 N.am      6 UNK        -0.4450 
     40 CA         26.9221   29.8908    4.1773 C.3       6 UNK         0.0367 
     41 CB         25.4284   30.1751    4.4062 C.3       6 UNK        -0.1929 
     42 C          27.3912   30.5307    2.8562 C.2       6 UNK         0.5070 
     43 O          27.5251   31.7534    2.8031 O.2       6 UNK        -0.5237 
     44 N          27.6290   29.7160    1.8175 N.am      7 UNK        -0.4739 
     45 CA         28.0745   30.1582    0.4945 C.3       7 UNK         0.0276 
     46 CB         27.9168   28.9967   -0.4970 C.3       7 UNK        -0.1927 
     47 C          29.5074   30.7249    0.4577 C.2       7 UNK         0.5013 
     48 O          29.8264   31.4497   -0.4858 O.2       7 UNK        -0.5193 
     49 N          30.3397   30.4100    1.4606 N.am      8 UNK        -0.4253 
     50 CA         31.6799   30.9694    1.6186 C.3       8 UNK         0.0242 
     51 CB         32.7123   30.1722    0.7988 C.3       8 UNK        -0.2000 
     52 C          32.0346   30.9957    3.1067 C.2       8 UNK         0.4948 
     53 O          32.4054   29.9621    3.6641 O.2       8 UNK        -0.5275 
     54 N          31.9534   32.1853    3.7195 N.am      9 UNK        -0.4246 
     55 CA         32.2914   32.4344    5.1284 C.3       9 UNK         0.0261 
     56 CB         31.9493   33.8907    5.4822 C.3       9 UNK        -0.1959 
     57 C          33.7552   32.1199    5.4972 C.2       9 UNK         0.5033 
     58 O          34.0411   31.8721    6.6696 O.2       9 UNK        -0.5390 
     59 N          34.6440   32.0889    4.4926 N.am      10 UNK        -0.4215 
     60 CA         36.0464   31.6737    4.5897 C.3       10 UNK         0.0240 
     61 CB         36.7159   31.8490    3.2166 C.3       10 UNK        -0.1982 
     62 C          36.2510   30.2351    5.1057 C.2       10 UNK         0.4970 
     63 O          37.3224   29.9478    5.6414 O.2       10 UNK        -0.4916 
     64 N          35.2358   29.3700    4.9643 N.am      11 UNK        -0.4279 
     65 CA         35.2006   28.0343    5.5798 C.3       11 UNK         0.1003 
     66 C          35.0178   28.0479    7.1280 C.2       11 UNK         0.5709 
     67 N          34.6663   29.1629    7.7604 N.am      11 UNK        -0.7358 
     68 O          35.2100   27.0199    7.7731 O.2       11 UNK        -0.4999 
     69 C69        34.1387   27.1220    4.9163 C.3       12 UNK        -0.0954 
     70 S70        34.4510   26.8246    3.1441 S.3       12 UNK        -0.2268 
     71 C71        32.7588   26.5798    2.5198 C.3       12 UNK         0.0203 
     72 H72        30.7810   28.2827   -1.5535 H         1 UNK         0.0888 
     73 H73        30.9224   27.7967    0.1385 H         1 UNK         0.0888 
     74 H74        32.2460   27.4804   -0.9851 H         1 UNK         0.0888 
     75 H75        29.6474   26.0108    0.5619 H         1 UNK         0.3017 
     76 H76        28.8524   24.0357    0.6234 H         1 UNK         0.0873 
     77 H77        30.1188   22.7068   -1.7537 H         1 UNK         0.0745 
     78 H78        31.2618   23.4351   -0.6893 H         1 UNK         0.0745 
     79 H79        32.4933   21.8618    0.6637 H         1 UNK         0.0705 
     80 H80        31.8033   20.8359    1.8902 H         1 UNK         0.0705 
     81 H81        32.6524   24.2979    1.0271 H         1 UNK         0.1334 
     82 H82        31.5874   25.8585    4.8733 H         1 UNK         0.1417 
     83 H83        30.6004   21.8139    3.8603 H         1 UNK         0.1562 
     84 H84        30.8989   24.2602    6.6315 H         1 UNK         0.0748 
     85 H85        30.5711   22.5976    6.2270 H         1 UNK         0.0748 
     86 H86        29.4931   26.1894    6.1816 H         1 UNK         0.0940 
     87 H87        27.7709   26.1249    6.4227 H         1 UNK         0.0940 
     88 H88        29.1896   25.9901    3.7091 H         1 UNK         0.0703 
     89 H89        26.5686   25.1516    4.3067 H         1 UNK         0.3081 
     90 H90        25.8761   23.9870    1.8741 H         1 UNK         0.0719 
     91 H91        24.6446   24.6276    3.8871 H         1 UNK         0.0809 
     92 H92        23.5153   24.6701    2.5526 H         1 UNK         0.0809 
     93 H93        24.1718   26.1727    3.1918 H         1 UNK         0.0809 
     94 H94        25.3722   24.7351   -0.1179 H         1 UNK         0.2990 
     95 H95        23.5874   26.0832   -1.5403 H         1 UNK         0.0690 
     96 H96        23.8712   28.1874   -2.8488 H         1 UNK         0.0788 
     97 H97        24.8641   28.8759   -1.5685 H         1 UNK         0.0788 
     98 H98        23.1716   28.5122   -1.2722 H         1 UNK         0.0788 
     99 H99        26.5149   26.5248   -1.6193 H         1 UNK         0.2993 
    100 H100       26.8465   23.8390   -3.8450 H         1 UNK         0.0949 
    101 H101       26.7950   25.7282   -5.4953 H         1 UNK         0.0767 
    102 H102       27.7336   26.7255   -4.3912 H         1 UNK         0.0767 
    103 H103       28.4418   25.2708   -5.0932 H         1 UNK         0.0767 
    104 H104       28.9184   25.2727   -2.6684 H         1 UNK         0.3013 
    105 H105       26.3185   27.8631    4.2535 H         1 UNK         0.3121 
    106 H106       27.4905   30.3615    4.9823 H         1 UNK         0.0774 
    107 H107       25.2271   31.2472    4.3875 H         1 UNK         0.0815 
    108 H108       24.8085   29.7143    3.6354 H         1 UNK         0.0815 
    109 H109       25.0953   29.8030    5.3752 H         1 UNK         0.0815 
    110 H110       27.4859   28.7205    1.9374 H         1 UNK         0.2987 
    111 H111       27.4102   30.9643    0.1751 H         1 UNK         0.0949 
    112 H112       26.8808   28.6704   -0.5495 H         1 UNK         0.0806 
    113 H113       28.2220   29.2868   -1.5033 H         1 UNK         0.0806 
    114 H114       28.5127   28.1365   -0.2015 H         1 UNK         0.0806 
    115 H115       30.0061   29.8311    2.2227 H         1 UNK         0.3010 
    116 H116       31.6836   31.9983    1.2513 H         1 UNK         0.0829 
    117 H117       32.4779   30.1927   -0.2654 H         1 UNK         0.0813 
    118 H118       33.7114   30.5928    0.9178 H         1 UNK         0.0813 
    119 H119       32.7626   29.1309    1.1138 H         1 UNK         0.0813 
    120 H120       31.6291   32.9822    3.1896 H         1 UNK         0.3038 
    121 H121       31.6630   31.7779    5.7342 H         1 UNK         0.0769 
    122 H122       32.5279   34.5983    4.8871 H         1 UNK         0.0811 
    123 H123       32.1626   34.0976    6.5320 H         1 UNK         0.0811 
    124 H124       30.8915   34.1010    5.3225 H         1 UNK         0.0811 
    125 H125       34.3075   32.3160    3.5690 H         1 UNK         0.3204 
    126 H126       36.5354   32.3431    5.3003 H         1 UNK         0.0748 
    127 H127       37.7719   31.5778    3.2593 H         1 UNK         0.0771 
    128 H128       36.2490   31.2203    2.4570 H         1 UNK         0.0771 
    129 H129       36.6641   32.8837    2.8772 H         1 UNK         0.0771 
    130 H130       34.3812   29.6672    4.5076 H         1 UNK         0.2980 
    131 H131       36.1745   27.5730    5.4052 H         1 UNK         0.0545 
    132 H132       34.5038   30.0293    7.2581 H         1 UNK         0.3459 
    133 H133       34.5611   29.1424    8.7619 H         1 UNK         0.3459 
    134 H134       33.1503   27.5680    5.0388 H         1 UNK         0.0616 
    135 H135       34.1048   26.1465    5.4053 H         1 UNK         0.0616 
    136 H136       32.7839   26.6707    1.4339 H         1 UNK         0.0634 
    137 H137       32.1082   27.3797    2.8770 H         1 UNK         0.0634 
@<TRIPOS>BOND
     1    1    2 1    
     2    1   72 1    
     3    1   73 1    
     4    1   74 1    
     5    2    3 2    
     6    2    4 am   BACKBONE|DICT|INTERRES
     7    4    5 1    
     8    4   75 1    
     9    5    6 1    
    10    5   35 1    
    11    5   76 1    
    12    6    7 1    
    13    6   77 1    
    14    6   78 1    
    15    7    8 1    
    16    8    9 1    
    17    8   79 1    
    18    8   80 1    
    19    9   10 ar   
    20    9   14 ar   
    21   10   11 ar   
    22   10   81 1    
    23   11   12 ar   
    24   11   71 1    
    25   12   13 ar   
    26   12   82 1    
    27   13   14 ar   
    28   13   15 1    
    29   14   83 1    
    30   15   16 1    
    31   15   84 1    
    32   15   85 1    
    33   16   17 1    
    34   17   18 1    
    35   17   86 1    
    36   17   87 1    
    37   18   19 1    
    38   18   37 1    
    39   18   88 1    
    40   19   20 am   BACKBONE|DICT|INTERRES
    41   19   89 1    
    42   20   21 2    
    43   20   22 1    
    44   22   23 1    
    45   22   24 1    
    46   22   90 1    
    47   23   91 1    
    48   23   92 1    
    49   23   93 1    
    50   24   25 am   BACKBONE|DICT|INTERRES
    51   24   94 1    
    52   25   26 2    
    53   25   27 1    
    54   27   28 1    
    55   27   29 1    
    56   27   95 1    
    57   28   96 1    
    58   28   97 1    
    59   28   98 1    
    60   29   30 am   BACKBONE|DICT|INTERRES
    61   29   99 1    
    62   30   31 2    
    63   30   32 1    
    64   32   33 1    
    65   32   34 1    
    66   32  100 1    
    67   33  101 1    
    68   33  102 1    
    69   33  103 1    
    70   34   35 am   BACKBONE|DICT|INTERRES
    71   34  104 1    
    72   35   36 2    
    73   37   38 2    
    74   37   39 am   BACKBONE|DICT|INTERRES
    75   39   40 1    
    76   39  105 1    
    77   40   41 1    
    78   40   42 1    
    79   40  106 1    
    80   41  107 1    
    81   41  108 1    
    82   41  109 1    
    83   42   43 2    
    84   42   44 am   BACKBONE|DICT|INTERRES
    85   44   45 1    
    86   44  110 1    
    87   45   46 1    
    88   45   47 1    
    89   45  111 1    
    90   46  112 1    
    91   46  113 1    
    92   46  114 1    
    93   47   48 2    
    94   47   49 am   BACKBONE|DICT|INTERRES
    95   49   50 1    
    96   49  115 1    
    97   50   51 1    
    98   50   52 1    
    99   50  116 1    
   100   51  117 1    
   101   51  118 1    
   102   51  119 1    
   103   52   53 2    
   104   52   54 am   BACKBONE|DICT|INTERRES
   105   54   55 1    
   106   54  120 1    
   107   55   56 1    
   108   55   57 1    
   109   55  121 1    
   110   56  122 1    
   111   56  123 1    
   112   56  124 1    
   113   57   58 2    
   114   57   59 am   BACKBONE|DICT|INTERRES
   115   59   60 1    
   116   59  125 1    
   117   60   61 1    
   118   60   62 1    
   119   60  126 1    
   120   61  127 1    
   121   61  128 1    
   122   61  129 1    
   123   62   63 2    
   124   62   64 am   BACKBONE|DICT|INTERRES
   125   64   65 1    
   126   64  130 1    
   127   65   66 1    
   128   65   69 1    
   129   65  131 1    
   130   66   67 am   BACKBONE|DICT|INTERRES
   131   66   68 2    
   132   67  132 1    
   133   67  133 1    
   134   69   70 1    
   135   69  134 1    
   136   69  135 1    
   137   70   71 1    
   138   71  136 1    
   139   71  137 1    
@<TRIPOS>SUBSTRUCTURE
     1 UNK         1 GROUP             0       ****    0 ROOT    
