@<TRIPOS>MOLECULE
3R136
137   139    1
SMALL
USER_CHARGES


@<TRIPOS>ATOM
      1 CA         32.4353   22.9305   -3.3534 C.3       0 UNK        -0.1979 
      2 C          31.5917   23.3421   -2.1561 C.2       0 UNK         0.4864 
      3 O          31.4020   22.5323   -1.2491 O.2       0 UNK        -0.5359 
      4 N          31.0826   24.5841   -2.1717 N.am      1 UNK        -0.4318 
      5 CA         30.2704   25.3166   -1.1793 C.3       1 UNK         0.0824 
      6 C6         31.0662   26.0311   -0.0462 C.3       12 UNK        -0.0944 
      7 S7         32.4655   25.1471    0.7265 S.3       12 UNK        -0.2672 
      8 C8         31.6645   23.9662    1.8642 C.3       12 UNK         0.0333 
      9 C9         30.7636   24.5960    2.9223 C.ar      12 UNK        -0.0807 
     10 C10        31.1569   25.7332    3.6383 C.ar      12 UNK        -0.0894 
     11 C11        30.3311   26.2646    4.6345 C.ar      12 UNK        -0.0804 
     12 C12        29.1070   25.6516    4.9157 C.ar      12 UNK        -0.0824 
     13 C13        28.7017   24.5166    4.2076 C.ar      12 UNK        -0.0762 
     14 C14        29.5383   23.9912    3.2199 C.ar      12 UNK        -0.0782 
     15 C15        27.3626   23.8558    4.5090 C.3       12 UNK         0.0230 
     16 S16        26.0852   24.3075    3.2885 S.3       12 UNK        -0.2608 
     17 C17        25.9476   26.1072    3.5553 C.3       12 UNK        -0.0989 
     18 CA         26.7630   26.8970    2.4954 C.3       5 UNK         0.0716 
     19 N          26.2367   26.7608    1.1326 N.am      5 UNK        -0.4135 
     20 C          25.0872   27.2573    0.6545 C.2       4 UNK         0.5031 
     21 O          24.2675   27.8733    1.3367 O.2       4 UNK        -0.5229 
     22 CA         24.8032   27.0610   -0.8425 C.3       4 UNK         0.0329 
     23 CB         25.4471   28.1953   -1.6587 C.3       4 UNK        -0.2001 
     24 N          25.2762   25.7697   -1.3546 N.am      4 UNK        -0.4303 
     25 C          24.5367   24.9265   -2.0916 C.2       3 UNK         0.5044 
     26 O          23.3563   25.1275   -2.3816 O.2       3 UNK        -0.5152 
     27 CA         25.2156   23.6500   -2.6310 C.3       3 UNK         0.0319 
     28 CB         25.5790   23.8259   -4.1147 C.3       3 UNK        -0.2001 
     29 N          26.4188   23.2626   -1.8934 N.am      3 UNK        -0.4354 
     30 C          26.4238   22.7493   -0.6562 C.2       2 UNK         0.4964 
     31 O          25.4001   22.4464   -0.0432 O.2       2 UNK        -0.5047 
     32 CA         27.7919   22.5564    0.0270 C.3       2 UNK         0.0288 
     33 CB         28.1809   21.0700    0.0564 C.3       2 UNK        -0.2113 
     34 N          28.9076   23.3279   -0.5409 N.am      2 UNK        -0.4145 
     35 C          28.9757   24.6591   -0.6522 C.2       1 UNK         0.5006 
     36 O          28.0278   25.3966   -0.3792 O.2       1 UNK        -0.5103 
     37 C          27.0166   28.3716    2.8781 C.2       5 UNK         0.5055 
     38 O          26.6886   28.7946    3.9889 O.2       5 UNK        -0.5220 
     39 N          27.6037   29.1319    1.9423 N.am      6 UNK        -0.4450 
     40 CA         28.0359   30.5129    2.1495 C.3       6 UNK         0.0367 
     41 CB         28.3289   31.1651    0.7884 C.3       6 UNK        -0.1929 
     42 C          29.2830   30.5486    3.0441 C.2       6 UNK         0.5070 
     43 O          30.2660   29.8715    2.7365 O.2       6 UNK        -0.5237 
     44 N          29.2379   31.3490    4.1174 N.am      7 UNK        -0.4739 
     45 CA         30.3179   31.4604    5.1045 C.3       7 UNK         0.0276 
     46 CB         29.8556   32.3100    6.2973 C.3       7 UNK        -0.1927 
     47 C          31.6343   32.0009    4.5275 C.2       7 UNK         0.5013 
     48 O          32.7042   31.5592    4.9464 O.2       7 UNK        -0.5193 
     49 N          31.5351   32.8946    3.5347 N.am      8 UNK        -0.4253 
     50 CA         32.6647   33.4869    2.8118 C.3       8 UNK         0.0242 
     51 CB         32.1285   34.5330    1.8204 C.3       8 UNK        -0.2000 
     52 C          33.5676   32.4708    2.0840 C.2       8 UNK         0.4948 
     53 O          34.7084   32.8113    1.7684 O.2       8 UNK        -0.5275 
     54 N          33.0603   31.2549    1.8309 N.am      9 UNK        -0.4246 
     55 CA         33.8072   30.1708    1.1980 C.3       9 UNK         0.0261 
     56 CB         32.8249   29.1086    0.6843 C.3       9 UNK        -0.1959 
     57 C          34.8548   29.5188    2.1170 C.2       9 UNK         0.5033 
     58 O          35.8499   29.0140    1.5938 O.2       9 UNK        -0.5390 
     59 N          34.6298   29.5163    3.4415 N.am      10 UNK        -0.4215 
     60 CA         35.5048   28.8462    4.4114 C.3       10 UNK         0.0240 
     61 CB         35.4602   27.3101    4.2398 C.3       10 UNK        -0.1982 
     62 C          35.1648   29.2053    5.8619 C.2       10 UNK         0.4970 
     63 O          36.0722   29.5293    6.6286 O.2       10 UNK        -0.4916 
     64 N          33.8821   29.0763    6.2225 N.am      11 UNK        -0.4279 
     65 CA         33.3823   29.1429    7.6065 C.3       11 UNK         0.1003 
     66 C          33.5588   30.5118    8.3241 C.2       11 UNK         0.5709 
     67 N          33.6236   31.6266    7.6094 N.am      11 UNK        -0.7358 
     68 O          33.6429   30.5568    9.5492 O.2       11 UNK        -0.4999 
     69 C69        31.9124   28.6577    7.7150 C.3       12 UNK        -0.0954 
     70 S70        31.6241   27.0274    6.9450 S.3       12 UNK        -0.2268 
     71 C71        30.7566   27.4967    5.4152 C.3       12 UNK         0.0203 
     72 H72        31.9926   22.0639   -3.8438 H         1 UNK         0.0888 
     73 H73        32.5215   23.7298   -4.0892 H         1 UNK         0.0888 
     74 H74        33.4394   22.6612   -3.0269 H         1 UNK         0.0888 
     75 H75        31.2923   25.1400   -2.9891 H         1 UNK         0.3017 
     76 H76        29.8708   26.1309   -1.7870 H         1 UNK         0.0873 
     77 H77        31.5023   26.9305   -0.4797 H         1 UNK         0.0745 
     78 H78        30.4061   26.4050    0.7395 H         1 UNK         0.0745 
     79 H79        32.4457   23.4015    2.3739 H         1 UNK         0.0705 
     80 H80        31.1078   23.2402    1.2722 H         1 UNK         0.0705 
     81 H81        32.1089   26.1995    3.4255 H         1 UNK         0.1334 
     82 H82        28.4707   26.0610    5.6885 H         1 UNK         0.1417 
     83 H83        29.2356   23.1009    2.6878 H         1 UNK         0.1562 
     84 H84        27.0178   24.1199    5.5100 H         1 UNK         0.0748 
     85 H85        27.4830   22.7714    4.5070 H         1 UNK         0.0748 
     86 H86        26.2833   26.3326    4.5684 H         1 UNK         0.0940 
     87 H87        24.8948   26.3915    3.5249 H         1 UNK         0.0940 
     88 H88        27.7608   26.4587    2.4544 H         1 UNK         0.0703 
     89 H89        26.8591   26.2618    0.4981 H         1 UNK         0.3081 
     90 H90        23.7201   27.1366   -0.9599 H         1 UNK         0.0719 
     91 H91        25.1638   28.1343   -2.7096 H         1 UNK         0.0809 
     92 H92        26.5361   28.1655   -1.6039 H         1 UNK         0.0809 
     93 H93        25.1268   29.1724   -1.2938 H         1 UNK         0.0809 
     94 H94        26.2347   25.5138   -1.1415 H         1 UNK         0.2990 
     95 H95        24.4906   22.8370   -2.5522 H         1 UNK         0.0690 
     96 H96        25.9920   22.9083   -4.5343 H         1 UNK         0.0788 
     97 H97        26.3099   24.6225   -4.2602 H         1 UNK         0.0788 
     98 H98        24.6977   24.0811   -4.7050 H         1 UNK         0.0788 
     99 H99        27.3069   23.4641   -2.3286 H         1 UNK         0.2993 
    100 H100       27.6583   22.8951    1.0549 H         1 UNK         0.0949 
    101 H101       28.3602   20.6829   -0.9474 H         1 UNK         0.0767 
    102 H102       29.0849   20.9087    0.6442 H         1 UNK         0.0767 
    103 H103       27.3915   20.4653    0.5055 H         1 UNK         0.0767 
    104 H104       29.7541   22.8125   -0.7863 H         1 UNK         0.3013 
    105 H105       27.8745   28.7005    1.0714 H         1 UNK         0.3121 
    106 H106       27.2249   31.0637    2.6310 H         1 UNK         0.0774 
    107 H107       28.6317   32.2057    0.9120 H         1 UNK         0.0815 
    108 H108       29.1337   30.6534    0.2583 H         1 UNK         0.0815 
    109 H109       27.4473   31.1590    0.1472 H         1 UNK         0.0815 
    110 H110       28.3934   31.8715    4.3041 H         1 UNK         0.2987 
    111 H111       30.5238   30.4532    5.4629 H         1 UNK         0.0949 
    112 H112       28.9823   31.8725    6.7816 H         1 UNK         0.0806 
    113 H113       30.6399   32.3804    7.0528 H         1 UNK         0.0806 
    114 H114       29.6005   33.3268    5.9963 H         1 UNK         0.0806 
    115 H115       30.6101   33.1810    3.2490 H         1 UNK         0.3010 
    116 H116       33.2898   33.9979    3.5471 H         1 UNK         0.0829 
    117 H117       31.5694   35.3168    2.3318 H         1 UNK         0.0813 
    118 H118       32.9453   35.0191    1.2848 H         1 UNK         0.0813 
    119 H119       31.4727   34.0824    1.0741 H         1 UNK         0.0813 
    120 H120       32.1161   31.0413    2.1302 H         1 UNK         0.3038 
    121 H121       34.3362   30.5830    0.3358 H         1 UNK         0.0769 
    122 H122       33.3565   28.3295    0.1363 H         1 UNK         0.0811 
    123 H123       32.0867   29.5383    0.0072 H         1 UNK         0.0811 
    124 H124       32.2900   28.6215    1.5009 H         1 UNK         0.0811 
    125 H125       33.8559   30.0565    3.8140 H         1 UNK         0.3204 
    126 H126       36.5272   29.1849    4.2299 H         1 UNK         0.0748 
    127 H127       36.0441   26.8115    5.0150 H         1 UNK         0.0771 
    128 H128       34.4416   26.9252    4.3016 H         1 UNK         0.0771 
    129 H129       35.8760   26.9944    3.2834 H         1 UNK         0.0771 
    130 H130       33.2075   28.7916    5.5320 H         1 UNK         0.2980 
    131 H131       33.9899   28.4352    8.1740 H         1 UNK         0.0545 
    132 H132       33.7499   32.5100    8.0753 H         1 UNK         0.3459 
    133 H133       33.4881   31.5923    6.6022 H         1 UNK         0.3459 
    134 H134       31.2297   29.3910    7.2881 H         1 UNK         0.0616 
    135 H135       31.6283   28.5698    8.7653 H         1 UNK         0.0616 
    136 H136       29.8783   28.0956    5.6621 H         1 UNK         0.0634 
    137 H137       31.4002   28.1273    4.8004 H         1 UNK         0.0634 
@<TRIPOS>BOND
     1    1    2 1    
     2    1   72 1    
     3    1   73 1    
     4    1   74 1    
     5    2    3 2    
     6    2    4 am   BACKBONE|DICT|INTERRES
     7    4    5 1    
     8    4   75 1    
     9    5    6 1    
    10    5   35 1    
    11    5   76 1    
    12    6    7 1    
    13    6   77 1    
    14    6   78 1    
    15    7    8 1    
    16    8    9 1    
    17    8   79 1    
    18    8   80 1    
    19    9   10 ar   
    20    9   14 ar   
    21   10   11 ar   
    22   10   81 1    
    23   11   12 ar   
    24   11   71 1    
    25   12   13 ar   
    26   12   82 1    
    27   13   14 ar   
    28   13   15 1    
    29   14   83 1    
    30   15   16 1    
    31   15   84 1    
    32   15   85 1    
    33   16   17 1    
    34   17   18 1    
    35   17   86 1    
    36   17   87 1    
    37   18   19 1    
    38   18   37 1    
    39   18   88 1    
    40   19   20 am   BACKBONE|DICT|INTERRES
    41   19   89 1    
    42   20   21 2    
    43   20   22 1    
    44   22   23 1    
    45   22   24 1    
    46   22   90 1    
    47   23   91 1    
    48   23   92 1    
    49   23   93 1    
    50   24   25 am   BACKBONE|DICT|INTERRES
    51   24   94 1    
    52   25   26 2    
    53   25   27 1    
    54   27   28 1    
    55   27   29 1    
    56   27   95 1    
    57   28   96 1    
    58   28   97 1    
    59   28   98 1    
    60   29   30 am   BACKBONE|DICT|INTERRES
    61   29   99 1    
    62   30   31 2    
    63   30   32 1    
    64   32   33 1    
    65   32   34 1    
    66   32  100 1    
    67   33  101 1    
    68   33  102 1    
    69   33  103 1    
    70   34   35 am   BACKBONE|DICT|INTERRES
    71   34  104 1    
    72   35   36 2    
    73   37   38 2    
    74   37   39 am   BACKBONE|DICT|INTERRES
    75   39   40 1    
    76   39  105 1    
    77   40   41 1    
    78   40   42 1    
    79   40  106 1    
    80   41  107 1    
    81   41  108 1    
    82   41  109 1    
    83   42   43 2    
    84   42   44 am   BACKBONE|DICT|INTERRES
    85   44   45 1    
    86   44  110 1    
    87   45   46 1    
    88   45   47 1    
    89   45  111 1    
    90   46  112 1    
    91   46  113 1    
    92   46  114 1    
    93   47   48 2    
    94   47   49 am   BACKBONE|DICT|INTERRES
    95   49   50 1    
    96   49  115 1    
    97   50   51 1    
    98   50   52 1    
    99   50  116 1    
   100   51  117 1    
   101   51  118 1    
   102   51  119 1    
   103   52   53 2    
   104   52   54 am   BACKBONE|DICT|INTERRES
   105   54   55 1    
   106   54  120 1    
   107   55   56 1    
   108   55   57 1    
   109   55  121 1    
   110   56  122 1    
   111   56  123 1    
   112   56  124 1    
   113   57   58 2    
   114   57   59 am   BACKBONE|DICT|INTERRES
   115   59   60 1    
   116   59  125 1    
   117   60   61 1    
   118   60   62 1    
   119   60  126 1    
   120   61  127 1    
   121   61  128 1    
   122   61  129 1    
   123   62   63 2    
   124   62   64 am   BACKBONE|DICT|INTERRES
   125   64   65 1    
   126   64  130 1    
   127   65   66 1    
   128   65   69 1    
   129   65  131 1    
   130   66   67 am   BACKBONE|DICT|INTERRES
   131   66   68 2    
   132   67  132 1    
   133   67  133 1    
   134   69   70 1    
   135   69  134 1    
   136   69  135 1    
   137   70   71 1    
   138   71  136 1    
   139   71  137 1    
@<TRIPOS>SUBSTRUCTURE
     1 UNK         1 GROUP             0       ****    0 ROOT    
