@<TRIPOS>MOLECULE
3R136
137   139    1
SMALL
USER_CHARGES


@<TRIPOS>ATOM
      1 CA         30.6554   21.5842   -4.3179 C.3       0 UNK        -0.1979 
      2 C          29.9754   22.7729   -3.6560 C.2       0 UNK         0.4864 
      3 O          29.4462   23.6433   -4.3495 O.2       0 UNK        -0.5359 
      4 N          29.9687   22.8154   -2.3176 N.am      1 UNK        -0.4318 
      5 CA         29.3768   23.8679   -1.4814 C.3       1 UNK         0.0824 
      6 C6         30.0579   23.9428   -0.0885 C.3       12 UNK        -0.0944 
      7 S7         30.1776   22.3380    0.7804 S.3       12 UNK        -0.2672 
      8 C8         31.7429   22.5411    1.6896 C.3       12 UNK         0.0333 
      9 C9         31.6315   23.6304    2.7458 C.ar      12 UNK        -0.0807 
     10 C10        32.2110   24.8859    2.5368 C.ar      12 UNK        -0.0894 
     11 C11        32.0737   25.8985    3.4914 C.ar      12 UNK        -0.0804 
     12 C12        31.3595   25.6426    4.6665 C.ar      12 UNK        -0.0824 
     13 C13        30.7759   24.3903    4.8850 C.ar      12 UNK        -0.0762 
     14 C14        30.9243   23.3858    3.9257 C.ar      12 UNK        -0.0782 
     15 C15        29.9496   24.1272    6.1351 C.3       12 UNK         0.0230 
     16 S16        28.1630   24.2320    5.7845 S.3       12 UNK        -0.2608 
     17 C17        27.9545   26.0220    5.4991 C.3       12 UNK        -0.0989 
     18 CA         28.0207   26.4034    3.9936 C.3       5 UNK         0.0716 
     19 N          27.0019   25.7660    3.1485 N.am      5 UNK        -0.4135 
     20 C          25.6720   25.8100    3.2872 C.2       4 UNK         0.5031 
     21 O          25.0844   26.4577    4.1546 O.2       4 UNK        -0.5229 
     22 CA         24.8875   25.0259    2.2232 C.3       4 UNK         0.0329 
     23 CB         23.3780   24.9208    2.5313 C.3       4 UNK        -0.2001 
     24 N          25.1240   25.5621    0.8762 N.am      4 UNK        -0.4303 
     25 C          24.7787   26.7730    0.4044 C.2       3 UNK         0.5044 
     26 O          24.2332   27.6395    1.0868 O.2       3 UNK        -0.5152 
     27 CA         25.0985   27.0996   -1.0721 C.3       3 UNK         0.0319 
     28 CB         26.1094   28.2548   -1.1657 C.3       3 UNK        -0.2001 
     29 N          25.6198   25.9683   -1.8416 N.am      3 UNK        -0.4354 
     30 C          24.9346   24.8734   -2.1998 C.2       2 UNK         0.4964 
     31 O          23.7233   24.7390   -2.0262 O.2       2 UNK        -0.5047 
     32 CA         25.7409   23.7147   -2.8202 C.3       2 UNK         0.0288 
     33 CB         25.4707   23.6182   -4.3306 C.3       2 UNK        -0.2113 
     34 N          27.1929   23.7837   -2.6021 N.am      2 UNK        -0.4145 
     35 C          27.8309   23.7874   -1.4218 C.2       1 UNK         0.5006 
     36 O          27.2410   23.7694   -0.3381 O.2       1 UNK        -0.5103 
     37 C          28.1564   27.9287    3.8015 C.2       5 UNK         0.5055 
     38 O          29.1381   28.4964    4.2798 O.2       5 UNK        -0.5220 
     39 N          27.2444   28.5672    3.0553 N.am      6 UNK        -0.4450 
     40 CA         27.3278   29.9790    2.6608 C.3       6 UNK         0.0367 
     41 CB         25.9072   30.5089    2.4004 C.3       6 UNK        -0.1929 
     42 C          28.2510   30.2164    1.4453 C.2       6 UNK         0.5070 
     43 O          28.2761   31.3270    0.9151 O.2       6 UNK        -0.5237 
     44 N          28.9760   29.1752    1.0091 N.am      7 UNK        -0.4739 
     45 CA         29.8697   29.1696   -0.1516 C.3       7 UNK         0.0276 
     46 CB         30.3186   27.7240   -0.4263 C.3       7 UNK        -0.1927 
     47 C          31.0895   30.0993   -0.0183 C.2       7 UNK         0.5013 
     48 O          31.5790   30.5869   -1.0381 O.2       7 UNK        -0.5193 
     49 N          31.5528   30.3368    1.2149 N.am      8 UNK        -0.4253 
     50 CA         32.6387   31.2576    1.5355 C.3       8 UNK         0.0242 
     51 CB         34.0052   30.5971    1.2695 C.3       8 UNK        -0.2000 
     52 C          32.5155   31.6660    3.0042 C.2       8 UNK         0.4948 
     53 O          32.2352   30.8120    3.8470 O.2       8 UNK        -0.5275 
     54 N          32.7765   32.9475    3.2949 N.am      9 UNK        -0.4246 
     55 CA         32.8044   33.4955    4.6569 C.3       9 UNK         0.0261 
     56 CB         32.7985   35.0313    4.5908 C.3       9 UNK        -0.1959 
     57 C          34.0042   32.9964    5.4827 C.2       9 UNK         0.5033 
     58 O          33.9122   32.9334    6.7097 O.2       9 UNK        -0.5390 
     59 N          35.0936   32.6201    4.7955 N.am      10 UNK        -0.4215 
     60 CA         36.3264   32.0670    5.3654 C.3       10 UNK         0.0240 
     61 CB         37.3574   31.8816    4.2396 C.3       10 UNK        -0.1982 
     62 C          36.1361   30.7482    6.1386 C.2       10 UNK         0.4970 
     63 O          36.9764   30.4258    6.9796 O.2       10 UNK        -0.4916 
     64 N          35.0456   30.0221    5.8588 N.am      11 UNK        -0.4279 
     65 CA         34.6328   28.8213    6.5982 C.3       11 UNK         0.1003 
     66 C          34.0805   29.1120    8.0259 C.2       11 UNK         0.5709 
     67 N          33.7801   30.3541    8.3927 N.am      11 UNK        -0.7358 
     68 O          33.9292   28.1881    8.8217 O.2       11 UNK        -0.4999 
     69 C69        33.6288   27.9613    5.7889 C.3       12 UNK        -0.0954 
     70 S70        34.2369   27.5119    4.1277 S.3       12 UNK        -0.2268 
     71 C71        32.6690   27.2759    3.2348 C.3       12 UNK         0.0203 
     72 H72        31.0767   20.8960   -3.5851 H         1 UNK         0.0888 
     73 H73        29.9393   21.0343   -4.9279 H         1 UNK         0.0888 
     74 H74        31.4627   21.9268   -4.9646 H         1 UNK         0.0888 
     75 H75        30.3860   22.0564   -1.7962 H         1 UNK         0.3017 
     76 H76        29.5880   24.8215   -1.9706 H         1 UNK         0.0873 
     77 H77        29.5579   24.6616    0.5635 H         1 UNK         0.0745 
     78 H78        31.0677   24.3328   -0.2235 H         1 UNK         0.0745 
     79 H79        31.9996   21.5952    2.1689 H         1 UNK         0.0705 
     80 H80        32.5498   22.7569    0.9875 H         1 UNK         0.0705 
     81 H81        32.7558   25.0805    1.6232 H         1 UNK         0.1334 
     82 H82        31.2302   26.4298    5.3960 H         1 UNK         0.1417 
     83 H83        30.4606   22.4210    4.0823 H         1 UNK         0.1562 
     84 H84        30.2134   24.8245    6.9319 H         1 UNK         0.0748 
     85 H85        30.1760   23.1306    6.5170 H         1 UNK         0.0748 
     86 H86        28.7206   26.5510    6.0693 H         1 UNK         0.0940 
     87 H87        27.0043   26.3332    5.9352 H         1 UNK         0.0940 
     88 H88        28.9530   26.0086    3.5948 H         1 UNK         0.0703 
     89 H89        27.3684   25.2087    2.3892 H         1 UNK         0.3081 
     90 H90        25.2881   24.0106    2.2242 H         1 UNK         0.0719 
     91 H91        22.8596   24.3333    1.7736 H         1 UNK         0.0809 
     92 H92        22.8991   25.8991    2.5821 H         1 UNK         0.0809 
     93 H93        23.2125   24.4316    3.4919 H         1 UNK         0.0809 
     94 H94        25.6326   24.9428    0.2534 H         1 UNK         0.2990 
     95 H95        24.1649   27.4217   -1.5380 H         1 UNK         0.0690 
     96 H96        26.3054   28.5300   -2.2022 H         1 UNK         0.0788 
     97 H97        27.0598   27.9927   -0.7020 H         1 UNK         0.0788 
     98 H98        25.7353   29.1483   -0.6653 H         1 UNK         0.0788 
     99 H99        26.6063   25.9872   -2.0513 H         1 UNK         0.2993 
    100 H100       25.3861   22.7964   -2.3476 H         1 UNK         0.0949 
    101 H101       24.4023   23.5298   -4.5338 H         1 UNK         0.0767 
    102 H102       25.8328   24.4999   -4.8612 H         1 UNK         0.0767 
    103 H103       25.9544   22.7430   -4.7652 H         1 UNK         0.0767 
    104 H104       27.7797   23.8028   -3.4334 H         1 UNK         0.3013 
    105 H105       26.4441   28.0485    2.7193 H         1 UNK         0.3121 
    106 H106       27.7477   30.5512    3.4910 H         1 UNK         0.0774 
    107 H107       25.9192   31.5783    2.1859 H         1 UNK         0.0815 
    108 H108       25.4389   30.0128    1.5511 H         1 UNK         0.0815 
    109 H109       25.2639   30.3632    3.2684 H         1 UNK         0.0815 
    110 H110       28.9000   28.3115    1.5232 H         1 UNK         0.2987 
    111 H111       29.2939   29.5197   -1.0113 H         1 UNK         0.0949 
    112 H112       30.8693   27.3033    0.4161 H         1 UNK         0.0806 
    113 H113       29.4665   27.0760   -0.6293 H         1 UNK         0.0806 
    114 H114       30.9727   27.6773   -1.2983 H         1 UNK         0.0806 
    115 H115       31.0852   29.9296    2.0153 H         1 UNK         0.3010 
    116 H116       32.5399   32.1491    0.9120 H         1 UNK         0.0829 
    117 H117       34.1166   30.3163    0.2222 H         1 UNK         0.0813 
    118 H118       34.8237   31.2770    1.5084 H         1 UNK         0.0813 
    119 H119       34.1413   29.6983    1.8717 H         1 UNK         0.0813 
    120 H120       32.9896   33.5887    2.5433 H         1 UNK         0.3038 
    121 H121       31.8970   33.1719    5.1719 H         1 UNK         0.0769 
    122 H122       32.7930   35.4639    5.5924 H         1 UNK         0.0811 
    123 H123       31.9129   35.4033    4.0754 H         1 UNK         0.0811 
    124 H124       33.6773   35.4190    4.0739 H         1 UNK         0.0811 
    125 H125       35.0692   32.7190    3.7917 H         1 UNK         0.3204 
    126 H126       36.7169   32.8008    6.0734 H         1 UNK         0.0748 
    127 H127       38.3013   31.5007    4.6327 H         1 UNK         0.0771 
    128 H128       37.0094   31.1734    3.4862 H         1 UNK         0.0771 
    129 H129       37.5762   32.8257    3.7400 H         1 UNK         0.0771 
    130 H130       34.3971   30.3515    5.1579 H         1 UNK         0.2980 
    131 H131       35.5273   28.2131    6.7455 H         1 UNK         0.0545 
    132 H132       33.8944   31.1329    7.7543 H         1 UNK         0.3459 
    133 H133       33.4288   30.5183    9.3224 H         1 UNK         0.3459 
    134 H134       32.6826   28.4966    5.6883 H         1 UNK         0.0616 
    135 H135       33.4081   27.0348    6.3218 H         1 UNK         0.0616 
    136 H136       31.9546   28.0522    3.5124 H         1 UNK         0.0634 
    137 H137       32.8574   27.4114    2.1688 H         1 UNK         0.0634 
@<TRIPOS>BOND
     1    1    2 1    
     2    1   72 1    
     3    1   73 1    
     4    1   74 1    
     5    2    3 2    
     6    2    4 am   BACKBONE|DICT|INTERRES
     7    4    5 1    
     8    4   75 1    
     9    5    6 1    
    10    5   35 1    
    11    5   76 1    
    12    6    7 1    
    13    6   77 1    
    14    6   78 1    
    15    7    8 1    
    16    8    9 1    
    17    8   79 1    
    18    8   80 1    
    19    9   10 ar   
    20    9   14 ar   
    21   10   11 ar   
    22   10   81 1    
    23   11   12 ar   
    24   11   71 1    
    25   12   13 ar   
    26   12   82 1    
    27   13   14 ar   
    28   13   15 1    
    29   14   83 1    
    30   15   16 1    
    31   15   84 1    
    32   15   85 1    
    33   16   17 1    
    34   17   18 1    
    35   17   86 1    
    36   17   87 1    
    37   18   19 1    
    38   18   37 1    
    39   18   88 1    
    40   19   20 am   BACKBONE|DICT|INTERRES
    41   19   89 1    
    42   20   21 2    
    43   20   22 1    
    44   22   23 1    
    45   22   24 1    
    46   22   90 1    
    47   23   91 1    
    48   23   92 1    
    49   23   93 1    
    50   24   25 am   BACKBONE|DICT|INTERRES
    51   24   94 1    
    52   25   26 2    
    53   25   27 1    
    54   27   28 1    
    55   27   29 1    
    56   27   95 1    
    57   28   96 1    
    58   28   97 1    
    59   28   98 1    
    60   29   30 am   BACKBONE|DICT|INTERRES
    61   29   99 1    
    62   30   31 2    
    63   30   32 1    
    64   32   33 1    
    65   32   34 1    
    66   32  100 1    
    67   33  101 1    
    68   33  102 1    
    69   33  103 1    
    70   34   35 am   BACKBONE|DICT|INTERRES
    71   34  104 1    
    72   35   36 2    
    73   37   38 2    
    74   37   39 am   BACKBONE|DICT|INTERRES
    75   39   40 1    
    76   39  105 1    
    77   40   41 1    
    78   40   42 1    
    79   40  106 1    
    80   41  107 1    
    81   41  108 1    
    82   41  109 1    
    83   42   43 2    
    84   42   44 am   BACKBONE|DICT|INTERRES
    85   44   45 1    
    86   44  110 1    
    87   45   46 1    
    88   45   47 1    
    89   45  111 1    
    90   46  112 1    
    91   46  113 1    
    92   46  114 1    
    93   47   48 2    
    94   47   49 am   BACKBONE|DICT|INTERRES
    95   49   50 1    
    96   49  115 1    
    97   50   51 1    
    98   50   52 1    
    99   50  116 1    
   100   51  117 1    
   101   51  118 1    
   102   51  119 1    
   103   52   53 2    
   104   52   54 am   BACKBONE|DICT|INTERRES
   105   54   55 1    
   106   54  120 1    
   107   55   56 1    
   108   55   57 1    
   109   55  121 1    
   110   56  122 1    
   111   56  123 1    
   112   56  124 1    
   113   57   58 2    
   114   57   59 am   BACKBONE|DICT|INTERRES
   115   59   60 1    
   116   59  125 1    
   117   60   61 1    
   118   60   62 1    
   119   60  126 1    
   120   61  127 1    
   121   61  128 1    
   122   61  129 1    
   123   62   63 2    
   124   62   64 am   BACKBONE|DICT|INTERRES
   125   64   65 1    
   126   64  130 1    
   127   65   66 1    
   128   65   69 1    
   129   65  131 1    
   130   66   67 am   BACKBONE|DICT|INTERRES
   131   66   68 2    
   132   67  132 1    
   133   67  133 1    
   134   69   70 1    
   135   69  134 1    
   136   69  135 1    
   137   70   71 1    
   138   71  136 1    
   139   71  137 1    
@<TRIPOS>SUBSTRUCTURE
     1 UNK         1 GROUP             0       ****    0 ROOT    
