@<TRIPOS>MOLECULE
3R136
137   139    1
SMALL
USER_CHARGES


@<TRIPOS>ATOM
      1 CA         32.8431   27.0916    0.0720 C.3       0 UNK        -0.1979 
      2 C          31.6901   26.1010    0.0984 C.2       0 UNK         0.4864 
      3 O          30.6289   26.4152    0.6360 O.2       0 UNK        -0.5359 
      4 N          31.8740   24.9083   -0.4856 N.am      1 UNK        -0.4318 
      5 CA         30.8853   23.8209   -0.5197 C.3       1 UNK         0.0824 
      6 C6         31.5744   22.4352   -0.6469 C.3       12 UNK        -0.0944 
      7 S7         30.5705   21.0811    0.0581 S.3       12 UNK        -0.2672 
      8 C8         31.2410   20.9431    1.7472 C.3       12 UNK         0.0333 
      9 C9         30.8053   22.1083    2.6246 C.ar      12 UNK        -0.0807 
     10 C10        31.6435   23.2139    2.7963 C.ar      12 UNK        -0.0894 
     11 C11        31.2379   24.3004    3.5766 C.ar      12 UNK        -0.0804 
     12 C12        29.9918   24.2593    4.2116 C.ar      12 UNK        -0.0824 
     13 C13        29.1527   23.1486    4.0705 C.ar      12 UNK        -0.0762 
     14 C14        29.5623   22.0810    3.2650 C.ar      12 UNK        -0.0782 
     15 C15        27.8270   23.0741    4.8200 C.3       12 UNK         0.0230 
     16 S16        26.4703   23.9300    3.9534 S.3       12 UNK        -0.2608 
     17 C17        26.7822   25.6698    4.4049 C.3       12 UNK        -0.0989 
     18 CA         27.2328   26.5030    3.1775 C.3       5 UNK         0.0716 
     19 N          26.1480   26.7597    2.2114 N.am      5 UNK        -0.4135 
     20 C          25.0192   27.4673    2.3881 C.2       4 UNK         0.5031 
     21 O          24.7236   28.0218    3.4476 O.2       4 UNK        -0.5229 
     22 CA         24.0751   27.6541    1.1848 C.3       4 UNK         0.0329 
     23 CB         24.2539   29.0623    0.5925 C.3       4 UNK        -0.2001 
     24 N          24.2664   26.6684    0.1222 N.am      4 UNK        -0.4303 
     25 C          23.8591   25.3927    0.1737 C.2       3 UNK         0.5044 
     26 O          23.1917   24.9233    1.0959 O.2       3 UNK        -0.5152 
     27 CA         24.2827   24.4790   -0.9954 C.3       3 UNK         0.0319 
     28 CB         23.1312   24.3293   -2.0029 C.3       3 UNK        -0.2001 
     29 N          25.4941   24.9141   -1.7080 N.am      3 UNK        -0.4354 
     30 C          26.6972   25.0782   -1.1413 C.2       2 UNK         0.4964 
     31 O          26.9071   24.9293    0.0650 O.2       2 UNK        -0.5047 
     32 CA         27.8335   25.5605   -2.0541 C.3       2 UNK         0.0288 
     33 CB         27.7561   27.0853   -2.2409 C.3       2 UNK        -0.2113 
     34 N          29.1093   25.2333   -1.4270 N.am      2 UNK        -0.4145 
     35 C          29.7603   24.0728   -1.5520 C.2       1 UNK         0.5006 
     36 O          29.4966   23.2367   -2.4193 O.2       1 UNK        -0.5103 
     37 C          28.0172   27.7610    3.6174 C.2       5 UNK         0.5055 
     38 O          29.2413   27.6971    3.7285 O.2       5 UNK        -0.5220 
     39 N          27.3346   28.8888    3.8441 N.am      6 UNK        -0.4450 
     40 CA         27.9074   30.1923    4.1880 C.3       6 UNK         0.0367 
     41 CB         26.8376   31.0267    4.9162 C.3       6 UNK        -0.1929 
     42 C          28.4857   30.9136    2.9520 C.2       6 UNK         0.5070 
     43 O          28.1559   32.0743    2.7032 O.2       6 UNK        -0.5237 
     44 N          29.3302   30.2096    2.1926 N.am      7 UNK        -0.4739 
     45 CA         30.0389   30.6976    1.0127 C.3       7 UNK         0.0276 
     46 CB         29.6531   29.8303   -0.1957 C.3       7 UNK        -0.1927 
     47 C          31.5485   30.6386    1.2753 C.2       7 UNK         0.5013 
     48 O          31.9892   29.9210    2.1790 O.2       7 UNK        -0.5193 
     49 N          32.3082   31.4262    0.4993 N.am      8 UNK        -0.4253 
     50 CA         33.7584   31.6419    0.6196 C.3       8 UNK         0.0242 
     51 CB         34.5356   30.3682    0.2220 C.3       8 UNK        -0.2000 
     52 C          34.1529   32.1680    2.0144 C.2       8 UNK         0.4948 
     53 O          35.0793   31.6431    2.6308 O.2       8 UNK        -0.5275 
     54 N          33.3946   33.1599    2.5089 N.am      9 UNK        -0.4246 
     55 CA         33.4704   33.7312    3.8626 C.3       9 UNK         0.0261 
     56 CB         34.7903   34.5087    4.0594 C.3       9 UNK        -0.1959 
     57 C          33.2138   32.6886    4.9742 C.2       9 UNK         0.5033 
     58 O          33.8265   32.7671    6.0402 O.2       9 UNK        -0.5390 
     59 N          32.3058   31.7419    4.6892 N.am      10 UNK        -0.4215 
     60 CA         31.9284   30.5741    5.4893 C.3       10 UNK         0.0240 
     61 CB         31.2971   30.9855    6.8366 C.3       10 UNK        -0.1982 
     62 C          33.0992   29.5866    5.6335 C.2       10 UNK         0.4970 
     63 O          33.6695   29.4522    6.7181 O.2       10 UNK        -0.4916 
     64 N          33.4117   28.9089    4.5218 N.am      11 UNK        -0.4279 
     65 CA         34.4139   27.8335    4.4137 C.3       11 UNK         0.1003 
     66 C          35.8965   28.3128    4.4855 C.2       11 UNK         0.5709 
     67 N          36.2146   29.5626    4.1795 N.am      11 UNK        -0.7358 
     68 O          36.7921   27.5324    4.8026 O.2       11 UNK        -0.4999 
     69 C69        34.1539   26.6231    5.3684 C.3       12 UNK        -0.0954 
     70 S70        32.4455   25.9857    5.4363 S.3       12 UNK        -0.2268 
     71 C71        32.1400   25.5230    3.7039 C.3       12 UNK         0.0203 
     72 H72        33.0662   27.4264    1.0845 H         1 UNK         0.0888 
     73 H73        33.7482   26.6573   -0.3516 H         1 UNK         0.0888 
     74 H74        32.5708   27.9648   -0.5200 H         1 UNK         0.0888 
     75 H75        32.7481   24.7177   -0.9546 H         1 UNK         0.3017 
     76 H76        30.3757   23.8376    0.4457 H         1 UNK         0.0873 
     77 H77        32.5348   22.4409   -0.1293 H         1 UNK         0.0745 
     78 H78        31.8101   22.2032   -1.6871 H         1 UNK         0.0745 
     79 H79        32.3292   20.8712    1.7096 H         1 UNK         0.0705 
     80 H80        30.8927   20.0069    2.1861 H         1 UNK         0.0705 
     81 H81        32.6032   23.2382    2.2988 H         1 UNK         0.1334 
     82 H82        29.6866   25.0956    4.8237 H         1 UNK         0.1417 
     83 H83        28.9160   21.2225    3.1403 H         1 UNK         0.1562 
     84 H84        27.9410   23.4765    5.8277 H         1 UNK         0.0748 
     85 H85        27.5389   22.0301    4.9533 H         1 UNK         0.0748 
     86 H86        27.5253   25.7017    5.2027 H         1 UNK         0.0940 
     87 H87        25.8748   26.0831    4.8474 H         1 UNK         0.0940 
     88 H88        27.9598   25.9058    2.6225 H         1 UNK         0.0703 
     89 H89        26.2877   26.2987    1.3172 H         1 UNK         0.3081 
     90 H90        23.0517   27.5667    1.5563 H         1 UNK         0.0719 
     91 H91        25.2611   29.2128    0.2011 H         1 UNK         0.0809 
     92 H92        23.5470   29.2457   -0.2169 H         1 UNK         0.0809 
     93 H93        24.0814   29.8296    1.3488 H         1 UNK         0.0809 
     94 H94        24.7905   26.9655   -0.6874 H         1 UNK         0.2990 
     95 H95        24.4933   23.4957   -0.5695 H         1 UNK         0.0690 
     96 H96        23.3736   23.6036   -2.7795 H         1 UNK         0.0788 
     97 H97        22.8938   25.2768   -2.4885 H         1 UNK         0.0788 
     98 H98        22.2230   23.9798   -1.5094 H         1 UNK         0.0788 
     99 H99        25.3969   25.0784   -2.7003 H         1 UNK         0.2993 
    100 H100       27.7556   25.0671   -3.0254 H         1 UNK         0.0949 
    101 H101       28.5874   27.4523   -2.8433 H         1 UNK         0.0767 
    102 H102       26.8362   27.3745   -2.7505 H         1 UNK         0.0767 
    103 H103       27.7807   27.6103   -1.2850 H         1 UNK         0.0767 
    104 H104       29.3992   25.8274   -0.6527 H         1 UNK         0.3013 
    105 H105       26.3226   28.8395    3.7432 H         1 UNK         0.3121 
    106 H106       28.7332   30.0364    4.8846 H         1 UNK         0.0774 
    107 H107       27.2415   31.9877    5.2377 H         1 UNK         0.0815 
    108 H108       25.9794   31.2295    4.2743 H         1 UNK         0.0815 
    109 H109       26.4756   30.5156    5.8085 H         1 UNK         0.0815 
    110 H110       29.6008   29.2840    2.5154 H         1 UNK         0.2987 
    111 H111       29.7677   31.7350    0.8047 H         1 UNK         0.0949 
    112 H112       30.1720   30.1521   -1.0993 H         1 UNK         0.0806 
    113 H113       29.8995   28.7822   -0.0333 H         1 UNK         0.0806 
    114 H114       28.5837   29.8924   -0.3975 H         1 UNK         0.0806 
    115 H115       31.8489   31.9722   -0.2172 H         1 UNK         0.3010 
    116 H116       34.0216   32.4264   -0.0917 H         1 UNK         0.0829 
    117 H117       34.2395   30.0122   -0.7644 H         1 UNK         0.0813 
    118 H118       35.6084   30.5620    0.1880 H         1 UNK         0.0813 
    119 H119       34.3780   29.5587    0.9350 H         1 UNK         0.0813 
    120 H120       32.6591   33.5271    1.9205 H         1 UNK         0.3038 
    121 H121       32.6542   34.4516    3.9359 H         1 UNK         0.0769 
    122 H122       34.7882   35.0495    5.0066 H         1 UNK         0.0811 
    123 H123       34.9403   35.2438    3.2689 H         1 UNK         0.0811 
    124 H124       35.6547   33.8439    4.0685 H         1 UNK         0.0811 
    125 H125       31.9228   31.7492    3.7546 H         1 UNK         0.3204 
    126 H126       31.1562   30.0523    4.9217 H         1 UNK         0.0748 
    127 H127       30.9439   30.1082    7.3799 H         1 UNK         0.0771 
    128 H128       32.0070   31.5008    7.4840 H         1 UNK         0.0771 
    129 H129       30.4401   31.6424    6.6880 H         1 UNK         0.0771 
    130 H130       32.9143   29.1382    3.6643 H         1 UNK         0.2980 
    131 H131       34.3063   27.4624    3.3949 H         1 UNK         0.0545 
    132 H132       37.1809   29.8399    4.2310 H         1 UNK         0.3459 
    133 H133       35.5329   30.2213    3.8143 H         1 UNK         0.3459 
    134 H134       34.7971   25.7858    5.0920 H         1 UNK         0.0616 
    135 H135       34.4364   26.8852    6.3893 H         1 UNK         0.0616 
    136 H136       33.0922   25.3410    3.2041 H         1 UNK         0.0634 
    137 H137       31.6754   26.3684    3.1951 H         1 UNK         0.0634 
@<TRIPOS>BOND
     1    1    2 1    
     2    1   72 1    
     3    1   73 1    
     4    1   74 1    
     5    2    3 2    
     6    2    4 am   BACKBONE|DICT|INTERRES
     7    4    5 1    
     8    4   75 1    
     9    5    6 1    
    10    5   35 1    
    11    5   76 1    
    12    6    7 1    
    13    6   77 1    
    14    6   78 1    
    15    7    8 1    
    16    8    9 1    
    17    8   79 1    
    18    8   80 1    
    19    9   10 ar   
    20    9   14 ar   
    21   10   11 ar   
    22   10   81 1    
    23   11   12 ar   
    24   11   71 1    
    25   12   13 ar   
    26   12   82 1    
    27   13   14 ar   
    28   13   15 1    
    29   14   83 1    
    30   15   16 1    
    31   15   84 1    
    32   15   85 1    
    33   16   17 1    
    34   17   18 1    
    35   17   86 1    
    36   17   87 1    
    37   18   19 1    
    38   18   37 1    
    39   18   88 1    
    40   19   20 am   BACKBONE|DICT|INTERRES
    41   19   89 1    
    42   20   21 2    
    43   20   22 1    
    44   22   23 1    
    45   22   24 1    
    46   22   90 1    
    47   23   91 1    
    48   23   92 1    
    49   23   93 1    
    50   24   25 am   BACKBONE|DICT|INTERRES
    51   24   94 1    
    52   25   26 2    
    53   25   27 1    
    54   27   28 1    
    55   27   29 1    
    56   27   95 1    
    57   28   96 1    
    58   28   97 1    
    59   28   98 1    
    60   29   30 am   BACKBONE|DICT|INTERRES
    61   29   99 1    
    62   30   31 2    
    63   30   32 1    
    64   32   33 1    
    65   32   34 1    
    66   32  100 1    
    67   33  101 1    
    68   33  102 1    
    69   33  103 1    
    70   34   35 am   BACKBONE|DICT|INTERRES
    71   34  104 1    
    72   35   36 2    
    73   37   38 2    
    74   37   39 am   BACKBONE|DICT|INTERRES
    75   39   40 1    
    76   39  105 1    
    77   40   41 1    
    78   40   42 1    
    79   40  106 1    
    80   41  107 1    
    81   41  108 1    
    82   41  109 1    
    83   42   43 2    
    84   42   44 am   BACKBONE|DICT|INTERRES
    85   44   45 1    
    86   44  110 1    
    87   45   46 1    
    88   45   47 1    
    89   45  111 1    
    90   46  112 1    
    91   46  113 1    
    92   46  114 1    
    93   47   48 2    
    94   47   49 am   BACKBONE|DICT|INTERRES
    95   49   50 1    
    96   49  115 1    
    97   50   51 1    
    98   50   52 1    
    99   50  116 1    
   100   51  117 1    
   101   51  118 1    
   102   51  119 1    
   103   52   53 2    
   104   52   54 am   BACKBONE|DICT|INTERRES
   105   54   55 1    
   106   54  120 1    
   107   55   56 1    
   108   55   57 1    
   109   55  121 1    
   110   56  122 1    
   111   56  123 1    
   112   56  124 1    
   113   57   58 2    
   114   57   59 am   BACKBONE|DICT|INTERRES
   115   59   60 1    
   116   59  125 1    
   117   60   61 1    
   118   60   62 1    
   119   60  126 1    
   120   61  127 1    
   121   61  128 1    
   122   61  129 1    
   123   62   63 2    
   124   62   64 am   BACKBONE|DICT|INTERRES
   125   64   65 1    
   126   64  130 1    
   127   65   66 1    
   128   65   69 1    
   129   65  131 1    
   130   66   67 am   BACKBONE|DICT|INTERRES
   131   66   68 2    
   132   67  132 1    
   133   67  133 1    
   134   69   70 1    
   135   69  134 1    
   136   69  135 1    
   137   70   71 1    
   138   71  136 1    
   139   71  137 1    
@<TRIPOS>SUBSTRUCTURE
     1 UNK         1 GROUP             0       ****    0 ROOT    
