@<TRIPOS>MOLECULE
3R136
137   139    1
SMALL
USER_CHARGES


@<TRIPOS>ATOM
      1 CA         26.2492   18.0913    2.3990 C.3       0 UNK        -0.1979 
      2 C          26.6328   19.2068    1.4375 C.2       0 UNK         0.4864 
      3 O          26.1788   19.2096    0.2918 O.2       0 UNK        -0.5359 
      4 N          27.4715   20.1468    1.8915 N.am      1 UNK        -0.4318 
      5 CA         27.9140   21.3175    1.1263 C.3       1 UNK         0.0824 
      6 C6         29.1214   22.0180    1.7928 C.3       12 UNK        -0.0944 
      7 S7         30.5823   20.9372    1.8840 S.3       12 UNK        -0.2672 
      8 C8         31.5243   21.7567    3.2164 C.3       12 UNK         0.0333 
      9 C9         32.1454   23.1087    2.8545 C.ar      12 UNK        -0.0807 
     10 C10        32.5021   23.9767    3.8914 C.ar      12 UNK        -0.0894 
     11 C11        33.1567   25.1847    3.6297 C.ar      12 UNK        -0.0804 
     12 C12        33.4475   25.5274    2.3056 C.ar      12 UNK        -0.0824 
     13 C13        33.0755   24.6874    1.2512 C.ar      12 UNK        -0.0762 
     14 C14        32.4320   23.4786    1.5335 C.ar      12 UNK        -0.0782 
     15 C15        33.4279   25.0422   -0.1896 C.3       12 UNK         0.0230 
     16 S16        32.8532   26.6951   -0.6990 S.3       12 UNK        -0.2608 
     17 C17        31.0388   26.4949   -0.7365 C.3       12 UNK        -0.0989 
     18 CA         30.3182   27.7204   -0.1167 C.3       5 UNK         0.0716 
     19 N          28.9767   27.9076   -0.6688 N.am      5 UNK        -0.4135 
     20 C          28.5732   28.9957   -1.3415 C.2       4 UNK         0.5031 
     21 O          29.3233   29.9055   -1.6963 O.2       4 UNK        -0.5229 
     22 CA         27.0715   29.1134   -1.6749 C.3       4 UNK         0.0329 
     23 CB         26.8120   28.6885   -3.1296 C.3       4 UNK        -0.2001 
     24 N          26.1910   28.3452   -0.7908 N.am      4 UNK        -0.4303 
     25 C          26.1198   28.4669    0.5430 C.2       3 UNK         0.5044 
     26 O          26.7478   29.3029    1.1887 O.2       3 UNK        -0.5152 
     27 CA         25.2661   27.4280    1.2917 C.3       3 UNK         0.0319 
     28 CB         23.8659   27.9914    1.5782 C.3       3 UNK        -0.2001 
     29 N          25.1434   26.1368    0.5996 N.am      3 UNK        -0.4354 
     30 C          26.1658   25.3521    0.2292 C.2       2 UNK         0.4964 
     31 O          27.3547   25.6436    0.3956 O.2       2 UNK        -0.5047 
     32 CA         25.8007   24.0685   -0.5291 C.3       2 UNK         0.0288 
     33 CB         25.8175   24.3296   -2.0443 C.3       2 UNK        -0.2113 
     34 N          26.7409   22.9925   -0.2192 N.am      2 UNK        -0.4145 
     35 C          26.7619   22.3239    0.9408 C.2       1 UNK         0.5006 
     36 O          25.9453   22.4993    1.8501 O.2       1 UNK        -0.5103 
     37 C          30.2641   27.6407    1.4200 C.2       5 UNK         0.5055 
     38 O          31.1067   28.2461    2.0712 O.2       5 UNK        -0.5220 
     39 N          29.2899   26.9133    1.9854 N.am      6 UNK        -0.4450 
     40 CA         29.2398   26.5800    3.4130 C.3       6 UNK         0.0367 
     41 CB         28.2237   25.4459    3.6194 C.3       6 UNK        -0.1929 
     42 C          28.9328   27.7469    4.3723 C.2       6 UNK         0.5070 
     43 O          29.1568   27.5913    5.5744 O.2       6 UNK        -0.5237 
     44 N          28.3944   28.8697    3.8737 N.am      7 UNK        -0.4739 
     45 CA         27.9744   30.0223    4.6811 C.3       7 UNK         0.0276 
     46 CB         26.9797   30.8774    3.8758 C.3       7 UNK        -0.1927 
     47 C          29.1486   30.8599    5.2306 C.2       7 UNK         0.5013 
     48 O          29.3242   32.0096    4.8200 O.2       7 UNK        -0.5193 
     49 N          29.9070   30.2759    6.1694 N.am      8 UNK        -0.4253 
     50 CA         30.9465   30.8833    7.0125 C.3       8 UNK         0.0242 
     51 CB         30.2943   31.7549    8.1084 C.3       8 UNK        -0.2000 
     52 C          32.0248   31.6330    6.2093 C.2       8 UNK         0.4948 
     53 O          32.9738   31.0069    5.7413 O.2       8 UNK        -0.5275 
     54 N          31.8522   32.9514    6.0340 N.am      9 UNK        -0.4246 
     55 CA         32.7046   33.8159    5.2113 C.3       9 UNK         0.0261 
     56 CB         32.2256   35.2706    5.3398 C.3       9 UNK        -0.1959 
     57 C          32.7684   33.3975    3.7296 C.2       9 UNK         0.5033 
     58 O          33.7728   33.6755    3.0720 O.2       9 UNK        -0.5390 
     59 N          31.7289   32.7031    3.2405 N.am      10 UNK        -0.4215 
     60 CA         31.6777   32.1029    1.9051 C.3       10 UNK         0.0240 
     61 CB         30.2633   31.5629    1.6404 C.3       10 UNK        -0.1982 
     62 C          32.7340   31.0047    1.6648 C.2       10 UNK         0.4970 
     63 O          33.0454   30.7421    0.5019 O.2       10 UNK        -0.4916 
     64 N          33.2845   30.4073    2.7351 N.am      11 UNK        -0.4279 
     65 CA         34.3654   29.4114    2.6571 C.3       11 UNK         0.1003 
     66 C          35.7277   29.9887    2.1681 C.2       11 UNK         0.5709 
     67 N          35.9358   31.3019    2.1571 N.am      11 UNK        -0.7358 
     68 O          36.6141   29.2270    1.7889 O.2       11 UNK        -0.4999 
     69 C69        34.5643   28.6375    3.9911 C.3       12 UNK        -0.0954 
     70 S70        33.0643   27.8088    4.6306 S.3       12 UNK        -0.2268 
     71 C71        33.5959   26.0716    4.7917 C.3       12 UNK         0.0203 
     72 H72        26.5411   17.1250    1.9884 H         1 UNK         0.0888 
     73 H73        26.7310   18.2064    3.3699 H         1 UNK         0.0888 
     74 H74        25.1707   18.0848    2.5544 H         1 UNK         0.0888 
     75 H75        27.8058   20.0982    2.8427 H         1 UNK         0.3017 
     76 H76        28.2216   20.9688    0.1377 H         1 UNK         0.0873 
     77 H77        28.8592   22.3386    2.8025 H         1 UNK         0.0745 
     78 H78        29.4056   22.9181    1.2431 H         1 UNK         0.0745 
     79 H79        32.3302   21.0872    3.5196 H         1 UNK         0.0705 
     80 H80        30.8747   21.8653    4.0863 H         1 UNK         0.0705 
     81 H81        32.2974   23.6924    4.9148 H         1 UNK         0.1334 
     82 H82        33.9698   26.4477    2.0929 H         1 UNK         0.1417 
     83 H83        32.1838   22.8138    0.7185 H         1 UNK         0.1562 
     84 H84        33.0267   24.3038   -0.8856 H         1 UNK         0.0748 
     85 H85        34.5127   25.0050   -0.2979 H         1 UNK         0.0748 
     86 H86        30.7386   25.5631   -0.2525 H         1 UNK         0.0940 
     87 H87        30.7579   26.3875   -1.7854 H         1 UNK         0.0940 
     88 H88        30.9146   28.6072   -0.3447 H         1 UNK         0.0703 
     89 H89        28.2885   27.2036   -0.4257 H         1 UNK         0.3081 
     90 H90        26.8000   30.1658   -1.5688 H         1 UNK         0.0719 
     91 H91        27.4332   29.2608   -3.8202 H         1 UNK         0.0809 
     92 H92        27.0366   27.6328   -3.2881 H         1 UNK         0.0809 
     93 H93        25.7739   28.8592   -3.4152 H         1 UNK         0.0809 
     94 H94        25.6309   27.6277   -1.2262 H         1 UNK         0.2990 
     95 H95        25.7575   27.2420    2.2481 H         1 UNK         0.0690 
     96 H96        23.9295   28.9405    2.1129 H         1 UNK         0.0788 
     97 H97        23.2833   27.3114    2.2001 H         1 UNK         0.0788 
     98 H98        23.3063   28.1717    0.6594 H         1 UNK         0.0788 
     99 H99        24.2021   25.8264    0.4031 H         1 UNK         0.2993 
    100 H100       24.7978   23.7503   -0.2347 H         1 UNK         0.0949 
    101 H101       25.5532   23.4319   -2.6039 H         1 UNK         0.0767 
    102 H102       25.0974   25.1019   -2.3183 H         1 UNK         0.0767 
    103 H103       26.7985   24.6619   -2.3875 H         1 UNK         0.0767 
    104 H104       27.4683   22.8221   -0.8981 H         1 UNK         0.3013 
    105 H105       28.6116   26.4375    1.3942 H         1 UNK         0.3121 
    106 H106       30.2262   26.1996    3.6891 H         1 UNK         0.0774 
    107 H107       27.2049   25.7709    3.4097 H         1 UNK         0.0815 
    108 H108       28.4412   24.5998    2.9711 H         1 UNK         0.0815 
    109 H109       28.2457   25.0823    4.6476 H         1 UNK         0.0815 
    110 H110       28.2265   28.9295    2.8766 H         1 UNK         0.2987 
    111 H111       27.4316   29.6440    5.5503 H         1 UNK         0.0949 
    112 H112       26.6410   31.7369    4.4558 H         1 UNK         0.0806 
    113 H113       27.4268   31.2598    2.9577 H         1 UNK         0.0806 
    114 H114       26.0928   30.3044    3.6058 H         1 UNK         0.0806 
    115 H115       29.7348   29.2852    6.3237 H         1 UNK         0.3010 
    116 H116       31.4589   30.0582    7.5100 H         1 UNK         0.0829 
    117 H117       29.6587   32.5383    7.6944 H         1 UNK         0.0813 
    118 H118       29.6743   31.1483    8.7687 H         1 UNK         0.0813 
    119 H119       31.0498   32.2344    8.7328 H         1 UNK         0.0813 
    120 H120       31.0162   33.3702    6.4156 H         1 UNK         0.3038 
    121 H121       33.7191   33.7504    5.6099 H         1 UNK         0.0769 
    122 H122       31.2029   35.3916    4.9801 H         1 UNK         0.0811 
    123 H123       32.8577   35.9422    4.7570 H         1 UNK         0.0811 
    124 H124       32.2619   35.6116    6.3746 H         1 UNK         0.0811 
    125 H125       30.9367   32.5194    3.8527 H         1 UNK         0.3204 
    126 H126       31.8746   32.8990    1.1842 H         1 UNK         0.0748 
    127 H127       30.1811   31.1638    0.6288 H         1 UNK         0.0771 
    128 H128       30.0098   30.7552    2.3264 H         1 UNK         0.0771 
    129 H129       29.5095   32.3433    1.7451 H         1 UNK         0.0771 
    130 H130       32.9860   30.6594    3.6702 H         1 UNK         0.2980 
    131 H131       34.0607   28.6882    1.8997 H         1 UNK         0.0545 
    132 H132       36.8217   31.6579    1.8355 H         1 UNK         0.3459 
    133 H133       35.2134   31.9413    2.4590 H         1 UNK         0.3459 
    134 H134       34.9167   29.3184    4.7677 H         1 UNK         0.0616 
    135 H135       35.3527   27.8932    3.8705 H         1 UNK         0.0616 
    136 H136       34.6780   26.0081    4.9074 H         1 UNK         0.0634 
    137 H137       33.1761   25.6953    5.7256 H         1 UNK         0.0634 
@<TRIPOS>BOND
     1    1    2 1    
     2    1   72 1    
     3    1   73 1    
     4    1   74 1    
     5    2    3 2    
     6    2    4 am   BACKBONE|DICT|INTERRES
     7    4    5 1    
     8    4   75 1    
     9    5    6 1    
    10    5   35 1    
    11    5   76 1    
    12    6    7 1    
    13    6   77 1    
    14    6   78 1    
    15    7    8 1    
    16    8    9 1    
    17    8   79 1    
    18    8   80 1    
    19    9   10 ar   
    20    9   14 ar   
    21   10   11 ar   
    22   10   81 1    
    23   11   12 ar   
    24   11   71 1    
    25   12   13 ar   
    26   12   82 1    
    27   13   14 ar   
    28   13   15 1    
    29   14   83 1    
    30   15   16 1    
    31   15   84 1    
    32   15   85 1    
    33   16   17 1    
    34   17   18 1    
    35   17   86 1    
    36   17   87 1    
    37   18   19 1    
    38   18   37 1    
    39   18   88 1    
    40   19   20 am   BACKBONE|DICT|INTERRES
    41   19   89 1    
    42   20   21 2    
    43   20   22 1    
    44   22   23 1    
    45   22   24 1    
    46   22   90 1    
    47   23   91 1    
    48   23   92 1    
    49   23   93 1    
    50   24   25 am   BACKBONE|DICT|INTERRES
    51   24   94 1    
    52   25   26 2    
    53   25   27 1    
    54   27   28 1    
    55   27   29 1    
    56   27   95 1    
    57   28   96 1    
    58   28   97 1    
    59   28   98 1    
    60   29   30 am   BACKBONE|DICT|INTERRES
    61   29   99 1    
    62   30   31 2    
    63   30   32 1    
    64   32   33 1    
    65   32   34 1    
    66   32  100 1    
    67   33  101 1    
    68   33  102 1    
    69   33  103 1    
    70   34   35 am   BACKBONE|DICT|INTERRES
    71   34  104 1    
    72   35   36 2    
    73   37   38 2    
    74   37   39 am   BACKBONE|DICT|INTERRES
    75   39   40 1    
    76   39  105 1    
    77   40   41 1    
    78   40   42 1    
    79   40  106 1    
    80   41  107 1    
    81   41  108 1    
    82   41  109 1    
    83   42   43 2    
    84   42   44 am   BACKBONE|DICT|INTERRES
    85   44   45 1    
    86   44  110 1    
    87   45   46 1    
    88   45   47 1    
    89   45  111 1    
    90   46  112 1    
    91   46  113 1    
    92   46  114 1    
    93   47   48 2    
    94   47   49 am   BACKBONE|DICT|INTERRES
    95   49   50 1    
    96   49  115 1    
    97   50   51 1    
    98   50   52 1    
    99   50  116 1    
   100   51  117 1    
   101   51  118 1    
   102   51  119 1    
   103   52   53 2    
   104   52   54 am   BACKBONE|DICT|INTERRES
   105   54   55 1    
   106   54  120 1    
   107   55   56 1    
   108   55   57 1    
   109   55  121 1    
   110   56  122 1    
   111   56  123 1    
   112   56  124 1    
   113   57   58 2    
   114   57   59 am   BACKBONE|DICT|INTERRES
   115   59   60 1    
   116   59  125 1    
   117   60   61 1    
   118   60   62 1    
   119   60  126 1    
   120   61  127 1    
   121   61  128 1    
   122   61  129 1    
   123   62   63 2    
   124   62   64 am   BACKBONE|DICT|INTERRES
   125   64   65 1    
   126   64  130 1    
   127   65   66 1    
   128   65   69 1    
   129   65  131 1    
   130   66   67 am   BACKBONE|DICT|INTERRES
   131   66   68 2    
   132   67  132 1    
   133   67  133 1    
   134   69   70 1    
   135   69  134 1    
   136   69  135 1    
   137   70   71 1    
   138   71  136 1    
   139   71  137 1    
@<TRIPOS>SUBSTRUCTURE
     1 UNK         1 GROUP             0       ****    0 ROOT    
