@<TRIPOS>MOLECULE
3R136
137   139    1
SMALL
USER_CHARGES


@<TRIPOS>ATOM
      1 CA         32.0397   22.9069   -2.9598 C.3       0 UNK        -0.1979 
      2 C          30.7174   22.9624   -2.2100 C.2       0 UNK         0.4864 
      3 O          29.8563   22.1080   -2.4238 O.2       0 UNK        -0.5359 
      4 N          30.5379   23.9746   -1.3491 N.am      1 UNK        -0.4318 
      5 CA         29.3774   24.2288   -0.4779 C.3       1 UNK         0.0824 
      6 C6         29.0963   23.0676    0.5144 C.3       12 UNK        -0.0944 
      7 S7         28.4619   23.6852    2.1055 S.3       12 UNK        -0.2672 
      8 C8         29.9581   23.6074    3.1485 C.3       12 UNK         0.0333 
      9 C9         29.9617   24.5291    4.3709 C.ar      12 UNK        -0.0807 
     10 C10        31.1726   24.7145    5.0435 C.ar      12 UNK        -0.0894 
     11 C11        31.2613   25.5691    6.1439 C.ar      12 UNK        -0.0804 
     12 C12        30.1206   26.2508    6.5759 C.ar      12 UNK        -0.0824 
     13 C13        28.8921   26.0726    5.9299 C.ar      12 UNK        -0.0762 
     14 C14        28.8184   25.1920    4.8415 C.ar      12 UNK        -0.0782 
     15 C15        27.6661   26.8169    6.4666 C.3       12 UNK         0.0230 
     16 S16        26.3256   27.1268    5.2600 S.3       12 UNK        -0.2608 
     17 C17        27.1154   28.2668    4.0744 C.3       12 UNK        -0.0989 
     18 CA         27.2659   27.6735    2.6429 C.3       5 UNK         0.0716 
     19 N          25.9967   27.4902    1.9424 N.am      5 UNK        -0.4135 
     20 C          25.3043   26.3483    1.8804 C.2       4 UNK         0.5031 
     21 O          25.5740   25.3412    2.5357 O.2       4 UNK        -0.5229 
     22 CA         24.1264   26.2878    0.8980 C.3       4 UNK         0.0329 
     23 CB         23.9591   27.5372    0.0066 C.3       4 UNK        -0.2001 
     24 N          24.3533   25.1231    0.0525 N.am      4 UNK        -0.4303 
     25 C          23.4471   24.2010   -0.2888 C.2       3 UNK         0.5044 
     26 O          22.2601   24.2554    0.0392 O.2       3 UNK        -0.5152 
     27 CA         23.9588   23.0054   -1.1243 C.3       3 UNK         0.0319 
     28 CB         22.8706   22.4141   -2.0463 C.3       3 UNK        -0.2001 
     29 N          25.1896   23.2924   -1.8776 N.am      3 UNK        -0.4354 
     30 C          25.3562   24.2206   -2.8339 C.2       2 UNK         0.4964 
     31 O          24.4448   24.9240   -3.2727 O.2       2 UNK        -0.5047 
     32 CA         26.7870   24.4023   -3.3782 C.3       2 UNK         0.0288 
     33 CB         27.0094   25.8054   -3.9814 C.3       2 UNK        -0.2113 
     34 N          27.8449   24.0907   -2.4060 N.am      2 UNK        -0.4145 
     35 C          28.0994   24.6790   -1.2273 C.2       1 UNK         0.5006 
     36 O          27.3976   25.5666   -0.7347 O.2       1 UNK        -0.5103 
     37 C          28.1582   28.5411    1.7412 C.2       5 UNK         0.5055 
     38 O          28.5852   29.6174    2.1583 O.2       5 UNK        -0.5220 
     39 N          28.4442   28.0772    0.5128 N.am      6 UNK        -0.4450 
     40 CA         29.3380   28.7758   -0.4294 C.3       6 UNK         0.0367 
     41 CB         29.3180   28.0733   -1.7947 C.3       6 UNK        -0.1929 
     42 C          30.7886   28.9270    0.0755 C.2       6 UNK         0.5070 
     43 O          31.5103   29.8054   -0.3955 O.2       6 UNK        -0.5237 
     44 N          31.1751   28.0934    1.0505 N.am      7 UNK        -0.4739 
     45 CA         32.4466   28.1487    1.7703 C.3       7 UNK         0.0276 
     46 CB         32.6738   26.7958    2.4602 C.3       7 UNK        -0.1927 
     47 C          32.5444   29.2968    2.7955 C.2       7 UNK         0.5013 
     48 O          33.6155   29.4628    3.3799 O.2       7 UNK        -0.5193 
     49 N          31.4703   30.0801    3.0036 N.am      8 UNK        -0.4253 
     50 CA         31.3890   31.2053    3.9510 C.3       8 UNK         0.0242 
     51 CB         29.9992   31.8554    3.8730 C.3       8 UNK        -0.2000 
     52 C          32.4849   32.2787    3.8126 C.2       8 UNK         0.4948 
     53 O          32.7794   32.9546    4.7979 O.2       8 UNK        -0.5275 
     54 N          33.1103   32.3847    2.6314 N.am      9 UNK        -0.4246 
     55 CA         34.3110   33.1921    2.3918 C.3       9 UNK         0.0261 
     56 CB         34.6632   33.1410    0.8964 C.3       9 UNK        -0.1959 
     57 C          35.5250   32.7688    3.2466 C.2       9 UNK         0.5033 
     58 O          36.3654   33.6180    3.5477 O.2       9 UNK        -0.5390 
     59 N          35.5885   31.4855    3.6286 N.am      10 UNK        -0.4215 
     60 CA         36.5750   30.9264    4.5519 C.3       10 UNK         0.0240 
     61 CB         37.1797   29.6517    3.9390 C.3       10 UNK        -0.1982 
     62 C          35.9391   30.6157    5.9163 C.2       10 UNK         0.4970 
     63 O          36.5556   30.9057    6.9423 O.2       10 UNK        -0.4916 
     64 N          34.7364   30.0238    5.9099 N.am      11 UNK        -0.4279 
     65 CA         34.0081   29.5908    7.1140 C.3       11 UNK         0.1003 
     66 C          33.4267   30.7399    7.9864 C.2       11 UNK         0.5709 
     67 N          33.2452   31.9518    7.4777 N.am      11 UNK        -0.7358 
     68 O          33.1435   30.5262    9.1628 O.2       11 UNK        -0.4999 
     69 C69        32.9178   28.5390    6.7779 C.3       12 UNK        -0.0954 
     70 S70        33.6305   27.0078    6.0907 S.3       12 UNK        -0.2268 
     71 C71        32.5901   25.7335    6.8683 C.3       12 UNK         0.0203 
     72 H72        31.8646   22.9660   -4.0337 H         1 UNK         0.0888 
     73 H73        32.7039   23.7239   -2.6787 H         1 UNK         0.0888 
     74 H74        32.5500   21.9675   -2.7488 H         1 UNK         0.0888 
     75 H75        31.2827   24.6518   -1.2586 H         1 UNK         0.3017 
     76 H76        29.6912   25.0957    0.1059 H         1 UNK         0.0873 
     77 H77        28.3888   22.3466    0.1003 H         1 UNK         0.0745 
     78 H78        30.0067   22.4979    0.7077 H         1 UNK         0.0745 
     79 H79        30.1018   22.5774    3.4775 H         1 UNK         0.0705 
     80 H80        30.8201   23.8614    2.5292 H         1 UNK         0.0705 
     81 H81        32.0596   24.1980    4.7015 H         1 UNK         0.1334 
     82 H82        30.1880   26.9133    7.4282 H         1 UNK         0.1417 
     83 H83        27.8648   25.0305    4.3598 H         1 UNK         0.1562 
     84 H84        27.9688   27.7759    6.8904 H         1 UNK         0.0748 
     85 H85        27.2521   26.2358    7.2914 H         1 UNK         0.0748 
     86 H86        28.0924   28.5456    4.4749 H         1 UNK         0.0940 
     87 H87        26.5330   29.1894    4.0438 H         1 UNK         0.0940 
     88 H88        27.7776   26.7131    2.7171 H         1 UNK         0.0703 
     89 H89        25.7042   28.2633    1.3617 H         1 UNK         0.3081 
     90 H90        23.2220   26.1544    1.4951 H         1 UNK         0.0719 
     91 H91        24.8434   27.7241   -0.6051 H         1 UNK         0.0809 
     92 H92        23.1156   27.4155   -0.6735 H         1 UNK         0.0809 
     93 H93        23.7581   28.4294    0.6009 H         1 UNK         0.0809 
     94 H94        25.3166   24.9844   -0.2316 H         1 UNK         0.2990 
     95 H95        24.2258   22.2345   -0.4000 H         1 UNK         0.0690 
     96 H96        23.2507   21.5665   -2.6165 H         1 UNK         0.0788 
     97 H97        22.4926   23.1528   -2.7536 H         1 UNK         0.0788 
     98 H98        22.0187   22.0559   -1.4670 H         1 UNK         0.0788 
     99 H99        26.0046   22.7658   -1.5957 H         1 UNK         0.2993 
    100 H100       26.8951   23.6755   -4.1847 H         1 UNK         0.0949 
    101 H101       26.7821   26.5901   -3.2599 H         1 UNK         0.0767 
    102 H102       28.0380   25.9399   -4.3162 H         1 UNK         0.0767 
    103 H103       26.3641   25.9658   -4.8459 H         1 UNK         0.0767 
    104 H104       28.4782   23.3364   -2.6662 H         1 UNK         0.3013 
    105 H105       28.0290   27.2042    0.1960 H         1 UNK         0.3121 
    106 H106       28.9423   29.7846   -0.5658 H         1 UNK         0.0774 
    107 H107       29.7416   27.0711   -1.7431 H         1 UNK         0.0815 
    108 H108       29.9019   28.6321   -2.5274 H         1 UNK         0.0815 
    109 H109       28.3037   27.9973   -2.1837 H         1 UNK         0.0815 
    110 H110       30.5061   27.4130    1.3773 H         1 UNK         0.2987 
    111 H111       33.2470   28.3018    1.0432 H         1 UNK         0.0949 
    112 H112       31.9199   26.6145    3.2254 H         1 UNK         0.0806 
    113 H113       32.6430   25.9700    1.7495 H         1 UNK         0.0806 
    114 H114       33.6479   26.7634    2.9505 H         1 UNK         0.0806 
    115 H115       30.6152   29.8688    2.4998 H         1 UNK         0.3010 
    116 H116       31.4987   30.7879    4.9520 H         1 UNK         0.0829 
    117 H117       29.2211   31.1625    4.1929 H         1 UNK         0.0813 
    118 H118       29.9326   32.7278    4.5249 H         1 UNK         0.0813 
    119 H119       29.7634   32.1839    2.8601 H         1 UNK         0.0813 
    120 H120       32.7946   31.7980    1.8721 H         1 UNK         0.3038 
    121 H121       34.0717   34.2248    2.6543 H         1 UNK         0.0769 
    122 H122       34.8871   32.1250    0.5686 H         1 UNK         0.0811 
    123 H123       35.5399   33.7536    0.6812 H         1 UNK         0.0811 
    124 H124       33.8465   33.5208    0.2822 H         1 UNK         0.0811 
    125 H125       34.8374   30.8574    3.3513 H         1 UNK         0.3204 
    126 H126       37.3865   31.6381    4.7182 H         1 UNK         0.0748 
    127 H127       37.9191   29.2094    4.6080 H         1 UNK         0.0771 
    128 H128       36.4193   28.8936    3.7446 H         1 UNK         0.0771 
    129 H129       37.6833   29.8683    2.9968 H         1 UNK         0.0771 
    130 H130       34.3077   29.7781    5.0212 H         1 UNK         0.2980 
    131 H131       34.7387   29.0935    7.7553 H         1 UNK         0.0545 
    132 H132       32.8762   32.6754    8.0730 H         1 UNK         0.3459 
    133 H133       33.4038   32.1521    6.4969 H         1 UNK         0.3459 
    134 H134       32.3491   28.2858    7.6741 H         1 UNK         0.0616 
    135 H135       32.1968   28.9329    6.0622 H         1 UNK         0.0616 
    136 H136       33.1332   24.7874    6.8493 H         1 UNK         0.0634 
    137 H137       32.4324   25.9656    7.9225 H         1 UNK         0.0634 
@<TRIPOS>BOND
     1    1    2 1    
     2    1   72 1    
     3    1   73 1    
     4    1   74 1    
     5    2    3 2    
     6    2    4 am   BACKBONE|DICT|INTERRES
     7    4    5 1    
     8    4   75 1    
     9    5    6 1    
    10    5   35 1    
    11    5   76 1    
    12    6    7 1    
    13    6   77 1    
    14    6   78 1    
    15    7    8 1    
    16    8    9 1    
    17    8   79 1    
    18    8   80 1    
    19    9   10 ar   
    20    9   14 ar   
    21   10   11 ar   
    22   10   81 1    
    23   11   12 ar   
    24   11   71 1    
    25   12   13 ar   
    26   12   82 1    
    27   13   14 ar   
    28   13   15 1    
    29   14   83 1    
    30   15   16 1    
    31   15   84 1    
    32   15   85 1    
    33   16   17 1    
    34   17   18 1    
    35   17   86 1    
    36   17   87 1    
    37   18   19 1    
    38   18   37 1    
    39   18   88 1    
    40   19   20 am   BACKBONE|DICT|INTERRES
    41   19   89 1    
    42   20   21 2    
    43   20   22 1    
    44   22   23 1    
    45   22   24 1    
    46   22   90 1    
    47   23   91 1    
    48   23   92 1    
    49   23   93 1    
    50   24   25 am   BACKBONE|DICT|INTERRES
    51   24   94 1    
    52   25   26 2    
    53   25   27 1    
    54   27   28 1    
    55   27   29 1    
    56   27   95 1    
    57   28   96 1    
    58   28   97 1    
    59   28   98 1    
    60   29   30 am   BACKBONE|DICT|INTERRES
    61   29   99 1    
    62   30   31 2    
    63   30   32 1    
    64   32   33 1    
    65   32   34 1    
    66   32  100 1    
    67   33  101 1    
    68   33  102 1    
    69   33  103 1    
    70   34   35 am   BACKBONE|DICT|INTERRES
    71   34  104 1    
    72   35   36 2    
    73   37   38 2    
    74   37   39 am   BACKBONE|DICT|INTERRES
    75   39   40 1    
    76   39  105 1    
    77   40   41 1    
    78   40   42 1    
    79   40  106 1    
    80   41  107 1    
    81   41  108 1    
    82   41  109 1    
    83   42   43 2    
    84   42   44 am   BACKBONE|DICT|INTERRES
    85   44   45 1    
    86   44  110 1    
    87   45   46 1    
    88   45   47 1    
    89   45  111 1    
    90   46  112 1    
    91   46  113 1    
    92   46  114 1    
    93   47   48 2    
    94   47   49 am   BACKBONE|DICT|INTERRES
    95   49   50 1    
    96   49  115 1    
    97   50   51 1    
    98   50   52 1    
    99   50  116 1    
   100   51  117 1    
   101   51  118 1    
   102   51  119 1    
   103   52   53 2    
   104   52   54 am   BACKBONE|DICT|INTERRES
   105   54   55 1    
   106   54  120 1    
   107   55   56 1    
   108   55   57 1    
   109   55  121 1    
   110   56  122 1    
   111   56  123 1    
   112   56  124 1    
   113   57   58 2    
   114   57   59 am   BACKBONE|DICT|INTERRES
   115   59   60 1    
   116   59  125 1    
   117   60   61 1    
   118   60   62 1    
   119   60  126 1    
   120   61  127 1    
   121   61  128 1    
   122   61  129 1    
   123   62   63 2    
   124   62   64 am   BACKBONE|DICT|INTERRES
   125   64   65 1    
   126   64  130 1    
   127   65   66 1    
   128   65   69 1    
   129   65  131 1    
   130   66   67 am   BACKBONE|DICT|INTERRES
   131   66   68 2    
   132   67  132 1    
   133   67  133 1    
   134   69   70 1    
   135   69  134 1    
   136   69  135 1    
   137   70   71 1    
   138   71  136 1    
   139   71  137 1    
@<TRIPOS>SUBSTRUCTURE
     1 UNK         1 GROUP             0       ****    0 ROOT    
