@<TRIPOS>MOLECULE
3R136
137   139    1
SMALL
USER_CHARGES


@<TRIPOS>ATOM
      1 CA         30.0361   25.7851    4.5773 C.3       0 UNK        -0.1979 
      2 C          28.8554   25.0485    3.9662 C.2       0 UNK         0.4864 
      3 O          27.7664   25.0457    4.5430 O.2       0 UNK        -0.5359 
      4 N          29.0570   24.4258    2.7975 N.am      1 UNK        -0.4318 
      5 CA         28.0437   23.6587    2.0634 C.3       1 UNK         0.0824 
      6 C6         28.6802   22.6350    1.0875 C.3       12 UNK        -0.0944 
      7 S7         29.7488   21.4308    1.9500 S.3       12 UNK        -0.2672 
      8 C8         31.3739   21.7208    1.1778 C.3       12 UNK         0.0333 
      9 C9         31.9293   23.1019    1.4968 C.ar      12 UNK        -0.0807 
     10 C10        32.4866   23.3643    2.7536 C.ar      12 UNK        -0.0894 
     11 C11        32.9994   24.6314    3.0477 C.ar      12 UNK        -0.0804 
     12 C12        32.9556   25.6318    2.0760 C.ar      12 UNK        -0.0824 
     13 C13        32.4040   25.3838    0.8184 C.ar      12 UNK        -0.0762 
     14 C14        31.8968   24.1138    0.5307 C.ar      12 UNK        -0.0782 
     15 C15        32.3661   26.4947   -0.2204 C.3       12 UNK         0.0230 
     16 S16        31.1499   27.7751    0.2202 S.3       12 UNK        -0.2608 
     17 C17        29.5728   26.9166   -0.1046 C.3       12 UNK        -0.0989 
     18 CA         28.7691   27.5461   -1.2736 C.3       5 UNK         0.0716 
     19 N          27.8387   26.5662   -1.8322 N.am      5 UNK        -0.4135 
     20 C          27.2901   26.6211   -3.0513 C.2       4 UNK         0.5031 
     21 O          27.5410   27.5052   -3.8720 O.2       4 UNK        -0.5229 
     22 CA         26.3109   25.5007   -3.4375 C.3       4 UNK         0.0329 
     23 CB         27.0665   24.3034   -4.0388 C.3       4 UNK        -0.2001 
     24 N          25.4965   25.0460   -2.3059 N.am      4 UNK        -0.4303 
     25 C          24.1778   24.8067   -2.3600 C.2       3 UNK         0.5044 
     26 O          23.5016   24.9224   -3.3833 O.2       3 UNK        -0.5152 
     27 CA         23.4804   24.3528   -1.0602 C.3       3 UNK         0.0319 
     28 CB         23.3292   22.8231   -1.0409 C.3       3 UNK        -0.2001 
     29 N          24.1757   24.7778    0.1567 N.am      3 UNK        -0.4354 
     30 C          24.3117   26.0495    0.5564 C.2       2 UNK         0.4964 
     31 O          23.7290   26.9912    0.0182 O.2       2 UNK        -0.5047 
     32 CA         25.2596   26.3357    1.7397 C.3       2 UNK         0.0288 
     33 CB         24.4515   26.7522    2.9805 C.3       2 UNK        -0.2113 
     34 N          26.1888   25.2623    2.1272 N.am      2 UNK        -0.4145 
     35 C          27.0654   24.6133    1.3474 C.2       1 UNK         0.5006 
     36 O          27.1357   24.7646    0.1254 O.2       1 UNK        -0.5103 
     37 C          28.0225   28.8098   -0.8012 C.2       5 UNK         0.5055 
     38 O          26.8287   28.7507   -0.4983 O.2       5 UNK        -0.5220 
     39 N          28.7716   29.9115   -0.6563 N.am      6 UNK        -0.4450 
     40 CA         28.3490   31.1043    0.0856 C.3       6 UNK         0.0367 
     41 CB         29.3194   32.2588   -0.2111 C.3       6 UNK        -0.1929 
     42 C          28.2662   30.8536    1.6052 C.2       6 UNK         0.5070 
     43 O          27.5348   31.5655    2.2928 O.2       6 UNK        -0.5237 
     44 N          29.0202   29.8558    2.0949 N.am      7 UNK        -0.4739 
     45 CA         29.0802   29.2993    3.4546 C.3       7 UNK         0.0276 
     46 CB         27.7218   28.7058    3.8713 C.3       7 UNK        -0.1927 
     47 C          29.6399   30.2321    4.5435 C.2       7 UNK         0.5013 
     48 O          30.3174   29.7442    5.4479 O.2       7 UNK        -0.5193 
     49 N          29.3737   31.5393    4.4475 N.am      8 UNK        -0.4253 
     50 CA         29.9488   32.5791    5.3009 C.3       8 UNK         0.0242 
     51 CB         29.2298   33.9103    5.0306 C.3       8 UNK        -0.2000 
     52 C          31.4581   32.7177    5.0454 C.2       8 UNK         0.4948 
     53 O          31.8734   32.7278    3.8843 O.2       8 UNK        -0.5275 
     54 N          32.2468   32.8033    6.1262 N.am      9 UNK        -0.4246 
     55 CA         33.7144   32.9341    6.1925 C.3       9 UNK         0.0261 
     56 CB         34.1842   34.2515    5.5444 C.3       9 UNK        -0.1959 
     57 C          34.5254   31.7388    5.6466 C.2       9 UNK         0.5033 
     58 O          35.6182   31.4791    6.1556 O.2       9 UNK        -0.5390 
     59 N          34.0001   31.0360    4.6360 N.am      10 UNK        -0.4215 
     60 CA         34.5870   29.8545    4.0039 C.3       10 UNK         0.0240 
     61 CB         33.6784   29.4034    2.8492 C.3       10 UNK        -0.1982 
     62 C          34.8196   28.7142    5.0126 C.2       10 UNK         0.4970 
     63 O          33.9418   28.4333    5.8309 O.2       10 UNK        -0.4916 
     64 N          36.0090   28.1060    4.9367 N.am      11 UNK        -0.4279 
     65 CA         36.5546   27.1158    5.8851 C.3       11 UNK         0.1003 
     66 C          36.9205   27.6913    7.2895 C.2       11 UNK         0.5709 
     67 N          36.8504   28.9965    7.5285 N.am      11 UNK        -0.7358 
     68 O          37.3169   26.9405    8.1782 O.2       11 UNK        -0.4999 
     69 C69        35.7264   25.7998    5.9935 C.3       12 UNK        -0.0954 
     70 S70        35.3908   25.0119    4.3819 S.3       12 UNK        -0.2268 
     71 C71        33.5743   24.9491    4.4180 C.3       12 UNK         0.0203 
     72 H72        30.6802   26.2063    3.8066 H         1 UNK         0.0888 
     73 H73        29.6943   26.6025    5.2116 H         1 UNK         0.0888 
     74 H74        30.6249   25.1042    5.1908 H         1 UNK         0.0888 
     75 H75        29.9781   24.4368    2.3803 H         1 UNK         0.3017 
     76 H76        27.4576   23.0879    2.7875 H         1 UNK         0.0873 
     77 H77        29.2441   23.1408    0.3030 H         1 UNK         0.0745 
     78 H78        27.8999   22.0695    0.5744 H         1 UNK         0.0745 
     79 H79        31.2919   21.5732    0.0998 H         1 UNK         0.0705 
     80 H80        32.0717   20.9618    1.5348 H         1 UNK         0.0705 
     81 H81        32.5123   22.5842    3.5025 H         1 UNK         0.1334 
     82 H82        33.3475   26.6101    2.3052 H         1 UNK         0.1417 
     83 H83        31.4764   23.9128   -0.4455 H         1 UNK         0.1562 
     84 H84        32.1428   26.1018   -1.2136 H         1 UNK         0.0748 
     85 H85        33.3528   26.9554   -0.2884 H         1 UNK         0.0748 
     86 H86        28.9879   26.8946    0.8173 H         1 UNK         0.0940 
     87 H87        29.7899   25.8719   -0.3298 H         1 UNK         0.0940 
     88 H88        29.4626   27.8305   -2.0684 H         1 UNK         0.0703 
     89 H89        27.5622   25.8260   -1.1918 H         1 UNK         0.3081 
     90 H90        25.6628   25.9167   -4.2120 H         1 UNK         0.0719 
     91 H91        27.6881   24.6144   -4.8797 H         1 UNK         0.0809 
     92 H92        27.7197   23.8294   -3.3050 H         1 UNK         0.0809 
     93 H93        26.3752   23.5465   -4.4099 H         1 UNK         0.0809 
     94 H94        25.9692   24.9221   -1.4161 H         1 UNK         0.2990 
     95 H95        22.4826   24.7966   -1.0509 H         1 UNK         0.0690 
     96 H96        22.7703   22.4897   -0.1663 H         1 UNK         0.0788 
     97 H97        24.2978   22.3214   -1.0341 H         1 UNK         0.0788 
     98 H98        22.7878   22.4738   -1.9213 H         1 UNK         0.0788 
     99 H99        24.6806   24.0661    0.6634 H         1 UNK         0.2993 
    100 H100       25.8733   27.1846    1.4342 H         1 UNK         0.0949 
    101 H101       23.7915   27.5917    2.7566 H         1 UNK         0.0767 
    102 H102       23.8285   25.9347    3.3455 H         1 UNK         0.0767 
    103 H103       25.1034   27.0661    3.7959 H         1 UNK         0.0767 
    104 H104       26.2856   25.1049    3.1257 H         1 UNK         0.3013 
    105 H105       29.7438   29.8703   -0.9305 H         1 UNK         0.3121 
    106 H106       27.3528   31.3910   -0.2583 H         1 UNK         0.0774 
    107 H107       29.0104   33.1689    0.3053 H         1 UNK         0.0815 
    108 H108       30.3347   32.0294    0.1153 H         1 UNK         0.0815 
    109 H109       29.3508   32.4880   -1.2764 H         1 UNK         0.0815 
    110 H110       29.6272   29.3913    1.4326 H         1 UNK         0.2987 
    111 H111       29.7881   28.4727    3.3862 H         1 UNK         0.0949 
    112 H112       27.7802   28.2436    4.8575 H         1 UNK         0.0806 
    113 H113       27.4045   27.9329    3.1729 H         1 UNK         0.0806 
    114 H114       26.9393   29.4635    3.9151 H         1 UNK         0.0806 
    115 H115       28.7813   31.8357    3.6768 H         1 UNK         0.3010 
    116 H116       29.7817   32.2950    6.3421 H         1 UNK         0.0829 
    117 H117       29.3519   34.2306    3.9948 H         1 UNK         0.0813 
    118 H118       28.1614   33.8328    5.2333 H         1 UNK         0.0813 
    119 H119       29.6242   34.7039    5.6667 H         1 UNK         0.0813 
    120 H120       31.7954   32.7450    7.0292 H         1 UNK         0.3038 
    121 H121       33.9505   32.9945    7.2562 H         1 UNK         0.0769 
    122 H122       35.2562   34.3942    5.6873 H         1 UNK         0.0811 
    123 H123       33.6817   35.1123    5.9856 H         1 UNK         0.0811 
    124 H124       33.9974   34.2677    4.4702 H         1 UNK         0.0811 
    125 H125       33.1193   31.3747    4.2585 H         1 UNK         0.3204 
    126 H126       35.5469   30.1645    3.5857 H         1 UNK         0.0748 
    127 H127       34.1829   28.6583    2.2350 H         1 UNK         0.0771 
    128 H128       32.7456   28.9680    3.2119 H         1 UNK         0.0771 
    129 H129       33.4236   30.2345    2.1909 H         1 UNK         0.0771 
    130 H130       36.6597   28.4133    4.2285 H         1 UNK         0.2980 
    131 H131       37.5186   26.8387    5.4573 H         1 UNK         0.0545 
    132 H132       36.5057   29.6473    6.8337 H         1 UNK         0.3459 
    133 H133       37.1091   29.3372    8.4405 H         1 UNK         0.3459 
    134 H134       36.2643   25.0657    6.5958 H         1 UNK         0.0616 
    135 H135       34.7897   25.9834    6.5218 H         1 UNK         0.0616 
    136 H136       33.1840   25.9117    4.7520 H         1 UNK         0.0634 
    137 H137       33.2542   24.2106    5.1546 H         1 UNK         0.0634 
@<TRIPOS>BOND
     1    1    2 1    
     2    1   72 1    
     3    1   73 1    
     4    1   74 1    
     5    2    3 2    
     6    2    4 am   BACKBONE|DICT|INTERRES
     7    4    5 1    
     8    4   75 1    
     9    5    6 1    
    10    5   35 1    
    11    5   76 1    
    12    6    7 1    
    13    6   77 1    
    14    6   78 1    
    15    7    8 1    
    16    8    9 1    
    17    8   79 1    
    18    8   80 1    
    19    9   10 ar   
    20    9   14 ar   
    21   10   11 ar   
    22   10   81 1    
    23   11   12 ar   
    24   11   71 1    
    25   12   13 ar   
    26   12   82 1    
    27   13   14 ar   
    28   13   15 1    
    29   14   83 1    
    30   15   16 1    
    31   15   84 1    
    32   15   85 1    
    33   16   17 1    
    34   17   18 1    
    35   17   86 1    
    36   17   87 1    
    37   18   19 1    
    38   18   37 1    
    39   18   88 1    
    40   19   20 am   BACKBONE|DICT|INTERRES
    41   19   89 1    
    42   20   21 2    
    43   20   22 1    
    44   22   23 1    
    45   22   24 1    
    46   22   90 1    
    47   23   91 1    
    48   23   92 1    
    49   23   93 1    
    50   24   25 am   BACKBONE|DICT|INTERRES
    51   24   94 1    
    52   25   26 2    
    53   25   27 1    
    54   27   28 1    
    55   27   29 1    
    56   27   95 1    
    57   28   96 1    
    58   28   97 1    
    59   28   98 1    
    60   29   30 am   BACKBONE|DICT|INTERRES
    61   29   99 1    
    62   30   31 2    
    63   30   32 1    
    64   32   33 1    
    65   32   34 1    
    66   32  100 1    
    67   33  101 1    
    68   33  102 1    
    69   33  103 1    
    70   34   35 am   BACKBONE|DICT|INTERRES
    71   34  104 1    
    72   35   36 2    
    73   37   38 2    
    74   37   39 am   BACKBONE|DICT|INTERRES
    75   39   40 1    
    76   39  105 1    
    77   40   41 1    
    78   40   42 1    
    79   40  106 1    
    80   41  107 1    
    81   41  108 1    
    82   41  109 1    
    83   42   43 2    
    84   42   44 am   BACKBONE|DICT|INTERRES
    85   44   45 1    
    86   44  110 1    
    87   45   46 1    
    88   45   47 1    
    89   45  111 1    
    90   46  112 1    
    91   46  113 1    
    92   46  114 1    
    93   47   48 2    
    94   47   49 am   BACKBONE|DICT|INTERRES
    95   49   50 1    
    96   49  115 1    
    97   50   51 1    
    98   50   52 1    
    99   50  116 1    
   100   51  117 1    
   101   51  118 1    
   102   51  119 1    
   103   52   53 2    
   104   52   54 am   BACKBONE|DICT|INTERRES
   105   54   55 1    
   106   54  120 1    
   107   55   56 1    
   108   55   57 1    
   109   55  121 1    
   110   56  122 1    
   111   56  123 1    
   112   56  124 1    
   113   57   58 2    
   114   57   59 am   BACKBONE|DICT|INTERRES
   115   59   60 1    
   116   59  125 1    
   117   60   61 1    
   118   60   62 1    
   119   60  126 1    
   120   61  127 1    
   121   61  128 1    
   122   61  129 1    
   123   62   63 2    
   124   62   64 am   BACKBONE|DICT|INTERRES
   125   64   65 1    
   126   64  130 1    
   127   65   66 1    
   128   65   69 1    
   129   65  131 1    
   130   66   67 am   BACKBONE|DICT|INTERRES
   131   66   68 2    
   132   67  132 1    
   133   67  133 1    
   134   69   70 1    
   135   69  134 1    
   136   69  135 1    
   137   70   71 1    
   138   71  136 1    
   139   71  137 1    
@<TRIPOS>SUBSTRUCTURE
     1 UNK         1 GROUP             0       ****    0 ROOT    
