@<TRIPOS>MOLECULE
3R136
137   139    1
SMALL
USER_CHARGES


@<TRIPOS>ATOM
      1 CA         26.3945   23.4548    5.7355 C.3       0 UNK        -0.1979 
      2 C          27.1593   23.4398    4.4208 C.2       0 UNK         0.4864 
      3 O          27.1510   24.4384    3.7049 O.2       0 UNK        -0.5359 
      4 N          27.8178   22.3166    4.1048 N.am      1 UNK        -0.4318 
      5 CA         28.6270   22.0647    2.9064 C.3       1 UNK         0.0824 
      6 C6         29.8564   23.0048    2.7737 C.3       12 UNK        -0.0944 
      7 S7         31.1927   22.2438    1.7966 S.3       12 UNK        -0.2672 
      8 C8         32.5110   23.4967    1.9604 C.3       12 UNK         0.0333 
      9 C9         32.4203   24.7077    1.0270 C.ar      12 UNK        -0.0807 
     10 C10        33.3061   25.7676    1.2470 C.ar      12 UNK        -0.0894 
     11 C11        33.3101   26.8881    0.4124 C.ar      12 UNK        -0.0804 
     12 C12        32.4228   26.9446   -0.6642 C.ar      12 UNK        -0.0824 
     13 C13        31.5134   25.9078   -0.8897 C.ar      12 UNK        -0.0762 
     14 C14        31.5196   24.7909   -0.0461 C.ar      12 UNK        -0.0782 
     15 C15        30.5349   25.9850   -2.0540 C.3       12 UNK         0.0230 
     16 S16        28.9254   26.6769   -1.5550 S.3       12 UNK        -0.2608 
     17 C17        29.2797   28.4673   -1.5132 C.3       12 UNK        -0.0989 
     18 CA         28.2660   29.3025   -0.6934 C.3       5 UNK         0.0716 
     19 N          26.8834   29.1257   -1.1474 N.am      5 UNK        -0.4135 
     20 C          25.8899   29.9910   -0.9099 C.2       4 UNK         0.5031 
     21 O          26.0416   31.0521   -0.3031 O.2       4 UNK        -0.5229 
     22 CA         24.4855   29.6316   -1.4275 C.3       4 UNK         0.0329 
     23 CB         24.3527   29.9178   -2.9369 C.3       4 UNK        -0.2001 
     24 N          24.0360   28.2753   -1.0834 N.am      4 UNK        -0.4303 
     25 C          24.5039   27.0998   -1.5229 C.2       3 UNK         0.5044 
     26 O          25.4203   26.9783   -2.3390 O.2       3 UNK        -0.5152 
     27 CA         23.7985   25.8526   -0.9638 C.3       3 UNK         0.0319 
     28 CB         22.5976   25.4778   -1.8477 C.3       3 UNK        -0.2001 
     29 N          24.6871   24.6941   -0.8535 N.am      3 UNK        -0.4354 
     30 C          25.7633   24.6196   -0.0599 C.2       2 UNK         0.4964 
     31 O          26.1480   25.5355    0.6721 O.2       2 UNK        -0.5047 
     32 CA         26.5220   23.2872   -0.0929 C.3       2 UNK         0.0288 
     33 CB         27.4315   23.1799   -1.3318 C.3       2 UNK        -0.2113 
     34 N          27.3136   23.1440    1.1245 N.am      2 UNK        -0.4145 
     35 C          27.7756   21.9916    1.6212 C.2       1 UNK         0.5006 
     36 O          27.5499   20.8912    1.1127 O.2       1 UNK        -0.5103 
     37 C          28.4234   29.1001    0.8291 C.2       5 UNK         0.5055 
     38 O          29.1974   29.8350    1.4451 O.2       5 UNK        -0.5220 
     39 N          27.6642   28.1507    1.4010 N.am      6 UNK        -0.4450 
     40 CA         27.6685   27.7421    2.8103 C.3       6 UNK         0.0367 
     41 CB         27.2470   28.9100    3.7324 C.3       6 UNK        -0.1929 
     42 C          28.9968   27.0759    3.2282 C.2       6 UNK         0.5070 
     43 O          29.7645   26.6330    2.3733 O.2       6 UNK        -0.5237 
     44 N          29.2219   26.9638    4.5440 N.am      7 UNK        -0.4739 
     45 CA         30.4216   26.3666    5.1324 C.3       7 UNK         0.0276 
     46 CB         30.1699   26.1218    6.6292 C.3       7 UNK        -0.1927 
     47 C          31.6645   27.2486    4.9307 C.2       7 UNK         0.5013 
     48 O          31.5380   28.4688    4.8103 O.2       7 UNK        -0.5193 
     49 N          32.8492   26.6204    4.9764 N.am      8 UNK        -0.4253 
     50 CA         34.1635   27.2388    4.7470 C.3       8 UNK         0.0242 
     51 CB         35.2603   26.1736    4.9067 C.3       8 UNK        -0.2000 
     52 C          34.4817   28.4685    5.6183 C.2       8 UNK         0.4948 
     53 O          35.2442   29.3297    5.1816 O.2       8 UNK        -0.5275 
     54 N          33.8647   28.5595    6.8048 N.am      9 UNK        -0.4246 
     55 CA         33.9198   29.7242    7.6916 C.3       9 UNK         0.0261 
     56 CB         33.2188   29.3836    9.0166 C.3       9 UNK        -0.1959 
     57 C          33.3174   31.0045    7.0781 C.2       9 UNK         0.5033 
     58 O          33.7615   32.0978    7.4316 O.2       9 UNK        -0.5390 
     59 N          32.3414   30.8623    6.1680 N.am      10 UNK        -0.4215 
     60 CA         31.7314   31.9756    5.4359 C.3       10 UNK         0.0240 
     61 CB         30.3185   31.5712    4.9808 C.3       10 UNK        -0.1982 
     62 C          32.5739   32.4249    4.2284 C.2       10 UNK         0.4970 
     63 O          32.3689   33.5381    3.7427 O.2       10 UNK        -0.4916 
     64 N          33.4903   31.5675    3.7600 N.am      11 UNK        -0.4279 
     65 CA         34.3615   31.8155    2.6006 C.3       11 UNK         0.1003 
     66 C          35.5837   32.7300    2.9044 C.2       11 UNK         0.5709 
     67 N          35.8642   33.0803    4.1547 N.am      11 UNK        -0.7358 
     68 O          36.2850   33.1421    1.9833 O.2       11 UNK        -0.4999 
     69 C69        34.8056   30.4926    1.9200 C.3       12 UNK        -0.0954 
     70 S70        33.3981   29.4276    1.4658 S.3       12 UNK        -0.2268 
     71 C71        34.2661   28.0409    0.6754 C.3       12 UNK         0.0203 
     72 H72        26.7660   24.2559    6.3739 H         1 UNK         0.0888 
     73 H73        25.3352   23.6303    5.5499 H         1 UNK         0.0888 
     74 H74        26.4938   22.5147    6.2778 H         1 UNK         0.0888 
     75 H75        27.7495   21.5285    4.7341 H         1 UNK         0.3017 
     76 H76        29.0133   21.0561    3.0652 H         1 UNK         0.0873 
     77 H77        29.5914   23.9729    2.3462 H         1 UNK         0.0745 
     78 H78        30.2616   23.2133    3.7644 H         1 UNK         0.0745 
     79 H79        32.5451   23.8377    2.9962 H         1 UNK         0.0705 
     80 H80        33.4637   23.0001    1.7718 H         1 UNK         0.0705 
     81 H81        34.0013   25.7176    2.0727 H         1 UNK         0.1334 
     82 H82        32.4325   27.8076   -1.3153 H         1 UNK         0.1417 
     83 H83        30.8172   23.9928   -0.2373 H         1 UNK         0.1562 
     84 H84        30.3727   24.9856   -2.4604 H         1 UNK         0.0748 
     85 H85        30.9519   26.5776   -2.8698 H         1 UNK         0.0748 
     86 H86        29.2970   28.8266   -2.5433 H         1 UNK         0.0940 
     87 H87        30.2847   28.6350   -1.1265 H         1 UNK         0.0940 
     88 H88        28.5207   30.3488   -0.8787 H         1 UNK         0.0703 
     89 H89        26.6645   28.2654   -1.6445 H         1 UNK         0.3081 
     90 H90        23.7905   30.2997   -0.9159 H         1 UNK         0.0719 
     91 H91        24.5838   30.9614   -3.1546 H         1 UNK         0.0809 
     92 H92        23.3377   29.7313   -3.2877 H         1 UNK         0.0809 
     93 H93        25.0308   29.3076   -3.5339 H         1 UNK         0.0809 
     94 H94        23.2892   28.2459   -0.4024 H         1 UNK         0.2990 
     95 H95        23.4345   26.0812    0.0403 H         1 UNK         0.0690 
     96 H96        22.9091   25.2178   -2.8604 H         1 UNK         0.0788 
     97 H97        21.8940   26.3078   -1.9275 H         1 UNK         0.0788 
     98 H98        22.0489   24.6303   -1.4361 H         1 UNK         0.0788 
     99 H99        24.4718   23.9090   -1.4505 H         1 UNK         0.2993 
    100 H100       25.7801   22.4860   -0.1208 H         1 UNK         0.0949 
    101 H101       26.8871   23.4057   -2.2496 H         1 UNK         0.0767 
    102 H102       28.2708   23.8711   -1.2693 H         1 UNK         0.0767 
    103 H103       27.8399   22.1748   -1.4376 H         1 UNK         0.0767 
    104 H104       27.4296   23.9959    1.6691 H         1 UNK         0.3013 
    105 H105       27.1320   27.5393    0.7926 H         1 UNK         0.3121 
    106 H106       26.9036   26.9691    2.8896 H         1 UNK         0.0774 
    107 H107       26.9912   28.5560    4.7311 H         1 UNK         0.0815 
    108 H108       28.0421   29.6487    3.8397 H         1 UNK         0.0815 
    109 H109       26.3669   29.4223    3.3437 H         1 UNK         0.0815 
    110 H110       28.5544   27.3661    5.1838 H         1 UNK         0.2987 
    111 H111       30.5965   25.4084    4.6400 H         1 UNK         0.0949 
    112 H112       29.9889   27.0543    7.1657 H         1 UNK         0.0806 
    113 H113       29.3081   25.4722    6.7843 H         1 UNK         0.0806 
    114 H114       31.0257   25.6360    7.0996 H         1 UNK         0.0806 
    115 H115       32.8533   25.6226    5.1298 H         1 UNK         0.3010 
    116 H116       34.1712   27.5830    3.7121 H         1 UNK         0.0829 
    117 H117       35.1153   25.3400    4.2198 H         1 UNK         0.0813 
    118 H118       36.2451   26.5940    4.6970 H         1 UNK         0.0813 
    119 H119       35.2875   25.7725    5.9206 H         1 UNK         0.0813 
    120 H120       33.2567   27.8033    7.0824 H         1 UNK         0.3038 
    121 H121       34.9717   29.9286    7.9025 H         1 UNK         0.0769 
    122 H122       32.1652   29.1440    8.8667 H         1 UNK         0.0811 
    123 H123       33.2659   30.2248    9.7098 H         1 UNK         0.0811 
    124 H124       33.6912   28.5339    9.5098 H         1 UNK         0.0811 
    125 H125       32.0545   29.9285    5.8773 H         1 UNK         0.3204 
    126 H126       31.6362   32.8304    6.1088 H         1 UNK         0.0748 
    127 H127       29.7079   31.2384    5.8202 H         1 UNK         0.0771 
    128 H128       29.8030   32.4133    4.5175 H         1 UNK         0.0771 
    129 H129       30.3455   30.7664    4.2444 H         1 UNK         0.0771 
    130 H130       33.6266   30.6825    4.2280 H         1 UNK         0.2980 
    131 H131       33.7693   32.3624    1.8643 H         1 UNK         0.0545 
    132 H132       35.2995   32.7419    4.9179 H         1 UNK         0.3459 
    133 H133       36.6555   33.6774    4.3353 H         1 UNK         0.3459 
    134 H134       35.3733   30.7032    1.0117 H         1 UNK         0.0616 
    135 H135       35.4704   29.9286    2.5760 H         1 UNK         0.0616 
    136 H136       35.0895   27.7159    1.3133 H         1 UNK         0.0634 
    137 H137       34.7114   28.3784   -0.2616 H         1 UNK         0.0634 
@<TRIPOS>BOND
     1    1    2 1    
     2    1   72 1    
     3    1   73 1    
     4    1   74 1    
     5    2    3 2    
     6    2    4 am   BACKBONE|DICT|INTERRES
     7    4    5 1    
     8    4   75 1    
     9    5    6 1    
    10    5   35 1    
    11    5   76 1    
    12    6    7 1    
    13    6   77 1    
    14    6   78 1    
    15    7    8 1    
    16    8    9 1    
    17    8   79 1    
    18    8   80 1    
    19    9   10 ar   
    20    9   14 ar   
    21   10   11 ar   
    22   10   81 1    
    23   11   12 ar   
    24   11   71 1    
    25   12   13 ar   
    26   12   82 1    
    27   13   14 ar   
    28   13   15 1    
    29   14   83 1    
    30   15   16 1    
    31   15   84 1    
    32   15   85 1    
    33   16   17 1    
    34   17   18 1    
    35   17   86 1    
    36   17   87 1    
    37   18   19 1    
    38   18   37 1    
    39   18   88 1    
    40   19   20 am   BACKBONE|DICT|INTERRES
    41   19   89 1    
    42   20   21 2    
    43   20   22 1    
    44   22   23 1    
    45   22   24 1    
    46   22   90 1    
    47   23   91 1    
    48   23   92 1    
    49   23   93 1    
    50   24   25 am   BACKBONE|DICT|INTERRES
    51   24   94 1    
    52   25   26 2    
    53   25   27 1    
    54   27   28 1    
    55   27   29 1    
    56   27   95 1    
    57   28   96 1    
    58   28   97 1    
    59   28   98 1    
    60   29   30 am   BACKBONE|DICT|INTERRES
    61   29   99 1    
    62   30   31 2    
    63   30   32 1    
    64   32   33 1    
    65   32   34 1    
    66   32  100 1    
    67   33  101 1    
    68   33  102 1    
    69   33  103 1    
    70   34   35 am   BACKBONE|DICT|INTERRES
    71   34  104 1    
    72   35   36 2    
    73   37   38 2    
    74   37   39 am   BACKBONE|DICT|INTERRES
    75   39   40 1    
    76   39  105 1    
    77   40   41 1    
    78   40   42 1    
    79   40  106 1    
    80   41  107 1    
    81   41  108 1    
    82   41  109 1    
    83   42   43 2    
    84   42   44 am   BACKBONE|DICT|INTERRES
    85   44   45 1    
    86   44  110 1    
    87   45   46 1    
    88   45   47 1    
    89   45  111 1    
    90   46  112 1    
    91   46  113 1    
    92   46  114 1    
    93   47   48 2    
    94   47   49 am   BACKBONE|DICT|INTERRES
    95   49   50 1    
    96   49  115 1    
    97   50   51 1    
    98   50   52 1    
    99   50  116 1    
   100   51  117 1    
   101   51  118 1    
   102   51  119 1    
   103   52   53 2    
   104   52   54 am   BACKBONE|DICT|INTERRES
   105   54   55 1    
   106   54  120 1    
   107   55   56 1    
   108   55   57 1    
   109   55  121 1    
   110   56  122 1    
   111   56  123 1    
   112   56  124 1    
   113   57   58 2    
   114   57   59 am   BACKBONE|DICT|INTERRES
   115   59   60 1    
   116   59  125 1    
   117   60   61 1    
   118   60   62 1    
   119   60  126 1    
   120   61  127 1    
   121   61  128 1    
   122   61  129 1    
   123   62   63 2    
   124   62   64 am   BACKBONE|DICT|INTERRES
   125   64   65 1    
   126   64  130 1    
   127   65   66 1    
   128   65   69 1    
   129   65  131 1    
   130   66   67 am   BACKBONE|DICT|INTERRES
   131   66   68 2    
   132   67  132 1    
   133   67  133 1    
   134   69   70 1    
   135   69  134 1    
   136   69  135 1    
   137   70   71 1    
   138   71  136 1    
   139   71  137 1    
@<TRIPOS>SUBSTRUCTURE
     1 UNK         1 GROUP             0       ****    0 ROOT    
