@<TRIPOS>MOLECULE
3R136
137   139    1
SMALL
USER_CHARGES


@<TRIPOS>ATOM
      1 CA         30.4570   18.6971   -0.9098 C.3       0 UNK        -0.1979 
      2 C          29.6527   19.8937   -0.4242 C.2       0 UNK         0.4864 
      3 O          28.4301   19.7974   -0.3048 O.2       0 UNK        -0.5359 
      4 N          30.3281   21.0225   -0.1636 N.am      1 UNK        -0.4318 
      5 CA         29.8116   22.3004    0.3580 C.3       1 UNK         0.0824 
      6 C6         29.1428   22.1885    1.7548 C.3       12 UNK        -0.0944 
      7 S7         30.3076   21.6205    3.0393 S.3       12 UNK        -0.2672 
      8 C8         29.8018   22.6307    4.4798 C.3       12 UNK         0.0333 
      9 C9         30.2004   24.1112    4.4625 C.ar      12 UNK        -0.0807 
     10 C10        30.9625   24.6909    3.4379 C.ar      12 UNK        -0.0894 
     11 C11        31.2945   26.0479    3.4771 C.ar      12 UNK        -0.0804 
     12 C12        30.8832   26.8287    4.5591 C.ar      12 UNK        -0.0824 
     13 C13        30.1086   26.2772    5.5797 C.ar      12 UNK        -0.0762 
     14 C14        29.7804   24.9178    5.5282 C.ar      12 UNK        -0.0782 
     15 C15        29.6328   27.1463    6.7383 C.3       12 UNK         0.0230 
     16 S16        27.8238   27.3778    6.7183 S.3       12 UNK        -0.2608 
     17 C17        27.5861   28.9689    5.8409 C.3       12 UNK        -0.0989 
     18 CA         28.0316   28.9949    4.3547 C.3       5 UNK         0.0716 
     19 N          27.6995   27.7530    3.6524 N.am      5 UNK        -0.4135 
     20 C          28.1050   27.4116    2.4238 C.2       4 UNK         0.5031 
     21 O          28.7228   28.1682    1.6716 O.2       4 UNK        -0.5229 
     22 CA         27.7626   25.9908    1.9481 C.3       4 UNK         0.0329 
     23 CB         26.8632   25.1849    2.9164 C.3       4 UNK        -0.2001 
     24 N          27.1894   25.9930    0.6033 N.am      4 UNK        -0.4303 
     25 C          26.0571   26.5904    0.2028 C.2       3 UNK         0.5044 
     26 O          25.3515   27.2845    0.9367 O.2       3 UNK        -0.5152 
     27 CA         25.6247   26.3720   -1.2619 C.3       3 UNK         0.0319 
     28 CB         25.8785   27.6394   -2.0937 C.3       3 UNK        -0.2001 
     29 N          26.2854   25.2320   -1.9089 N.am      3 UNK        -0.4354 
     30 C          26.0794   23.9436   -1.5983 C.2       2 UNK         0.4964 
     31 O          25.2312   23.5609   -0.7915 O.2       2 UNK        -0.5047 
     32 CA         26.9962   22.9007   -2.2661 C.3       2 UNK         0.0288 
     33 CB         27.6848   23.3983   -3.5584 C.3       2 UNK        -0.2113 
     34 N          27.9871   22.3799   -1.3157 N.am      2 UNK        -0.4145 
     35 C          28.9094   23.0725   -0.6307 C.2       1 UNK         0.5006 
     36 O          29.0736   24.2878   -0.7517 O.2       1 UNK        -0.5103 
     37 C          27.5215   30.2708    3.6443 C.2       5 UNK         0.5055 
     38 O          28.0134   31.3598    3.9408 O.2       5 UNK        -0.5220 
     39 N          26.5580   30.1232    2.7210 N.am      6 UNK        -0.4450 
     40 CA         26.0524   31.1939    1.8623 C.3       6 UNK         0.0367 
     41 CB         24.7158   30.7593    1.2402 C.3       6 UNK        -0.1929 
     42 C          27.0447   31.6129    0.7614 C.2       6 UNK         0.5070 
     43 O          26.9587   32.7499    0.2963 O.2       6 UNK        -0.5237 
     44 N          27.9589   30.7162    0.3549 N.am      7 UNK        -0.4739 
     45 CA         29.0254   31.0261   -0.6038 C.3       7 UNK         0.0276 
     46 CB         29.5877   29.7304   -1.2124 C.3       7 UNK        -0.1927 
     47 C          30.1385   31.8482    0.0617 C.2       7 UNK         0.5013 
     48 O          30.5331   32.8886   -0.4662 O.2       7 UNK        -0.5193 
     49 N          30.5886   31.3762    1.2275 N.am      8 UNK        -0.4253 
     50 CA         31.5286   32.0302    2.1284 C.3       8 UNK         0.0242 
     51 CB         32.9653   31.9621    1.5755 C.3       8 UNK        -0.2000 
     52 C          31.4284   31.2945    3.4638 C.2       8 UNK         0.4948 
     53 O          31.3269   30.0679    3.4581 O.2       8 UNK        -0.5275 
     54 N          31.4782   32.0323    4.5796 N.am      9 UNK        -0.4246 
     55 CA         31.3721   31.4705    5.9323 C.3       9 UNK         0.0261 
     56 CB         31.1414   32.6083    6.9396 C.3       9 UNK        -0.1959 
     57 C          32.5862   30.6186    6.3482 C.2       9 UNK         0.5033 
     58 O          32.4446   29.7500    7.2095 O.2       9 UNK        -0.5390 
     59 N          33.7444   30.8794    5.7317 N.am      10 UNK        -0.4215 
     60 CA         34.9964   30.1597    5.9301 C.3       10 UNK         0.0240 
     61 CB         35.8838   30.9297    6.9274 C.3       10 UNK        -0.1982 
     62 C          35.6541   29.9702    4.5583 C.2       10 UNK         0.4970 
     63 O          36.6072   30.6766    4.2263 O.2       10 UNK        -0.4916 
     64 N          35.1009   29.0416    3.7700 N.am      11 UNK        -0.4279 
     65 CA         35.6106   28.6411    2.4471 C.3       11 UNK         0.1003 
     66 C          36.9835   27.9025    2.4552 C.2       11 UNK         0.5709 
     67 N          37.4738   27.4143    3.5889 N.am      11 UNK        -0.7358 
     68 O          37.6209   27.7832    1.4114 O.2       11 UNK        -0.4999 
     69 C69        34.5435   27.8577    1.6342 C.3       12 UNK        -0.0954 
     70 S70        33.8593   26.4216    2.5362 S.3       12 UNK        -0.2268 
     71 C71        32.0719   26.6858    2.3389 C.3       12 UNK         0.0203 
     72 H72        30.1139   18.3901   -1.8974 H         1 UNK         0.0888 
     73 H73        31.5220   18.9193   -0.9742 H         1 UNK         0.0888 
     74 H74        30.3270   17.8577   -0.2273 H         1 UNK         0.0888 
     75 H75        31.3269   21.0184   -0.3181 H         1 UNK         0.3017 
     76 H76        30.6971   22.9268    0.4783 H         1 UNK         0.0873 
     77 H77        28.7497   23.1566    2.0614 H         1 UNK         0.0745 
     78 H78        28.2870   21.5123    1.7321 H         1 UNK         0.0745 
     79 H79        30.2361   22.1743    5.3703 H         1 UNK         0.0705 
     80 H80        28.7194   22.5525    4.5937 H         1 UNK         0.0705 
     81 H81        31.3031   24.1012    2.6001 H         1 UNK         0.1334 
     82 H82        31.1513   27.8742    4.5964 H         1 UNK         0.1417 
     83 H83        29.1862   24.4881    6.3238 H         1 UNK         0.1562 
     84 H84        30.1304   28.1176    6.7362 H         1 UNK         0.0748 
     85 H85        29.9130   26.6644    7.6760 H         1 UNK         0.0748 
     86 H86        28.1020   29.7525    6.3993 H         1 UNK         0.0940 
     87 H87        26.5227   29.2055    5.9172 H         1 UNK         0.0940 
     88 H88        29.1185   29.0645    4.3456 H         1 UNK         0.0703 
     89 H89        27.2086   27.0647    4.2043 H         1 UNK         0.3081 
     90 H90        28.7177   25.4738    1.8642 H         1 UNK         0.0719 
     91 H91        27.3515   25.0291    3.8787 H         1 UNK         0.0809 
     92 H92        26.6392   24.1977    2.5125 H         1 UNK         0.0809 
     93 H93        25.9088   25.6798    3.1005 H         1 UNK         0.0809 
     94 H94        27.7343   25.4864   -0.0892 H         1 UNK         0.2990 
     95 H95        24.5498   26.1795   -1.2529 H         1 UNK         0.0690 
     96 H96        25.4678   27.5424   -3.0989 H         1 UNK         0.0788 
     97 H97        26.9431   27.8522   -2.1852 H         1 UNK         0.0788 
     98 H98        25.4090   28.5114   -1.6360 H         1 UNK         0.0788 
     99 H99        27.0202   25.4470   -2.5678 H         1 UNK         0.2993 
    100 H100       26.3542   22.0611   -2.5377 H         1 UNK         0.0949 
    101 H101       26.9521   23.7697   -4.2763 H         1 UNK         0.0767 
    102 H102       28.4029   24.1974   -3.3719 H         1 UNK         0.0767 
    103 H103       28.2235   22.5857   -4.0462 H         1 UNK         0.0767 
    104 H104       27.9211   21.3872   -1.0960 H         1 UNK         0.3013 
    105 H105       26.2171   29.1907    2.5274 H         1 UNK         0.3121 
    106 H106       25.8667   32.0702    2.4873 H         1 UNK         0.0774 
    107 H107       24.2834   31.5655    0.6460 H         1 UNK         0.0815 
    108 H108       24.8379   29.9003    0.5800 H         1 UNK         0.0815 
    109 H109       23.9863   30.4948    2.0057 H         1 UNK         0.0815 
    110 H110       28.0029   29.8070    0.8071 H         1 UNK         0.2987 
    111 H111       28.6053   31.6241   -1.4160 H         1 UNK         0.0949 
    112 H112       28.8128   29.1683   -1.7306 H         1 UNK         0.0806 
    113 H113       30.3680   29.9516   -1.9418 H         1 UNK         0.0806 
    114 H114       30.0262   29.0774   -0.4572 H         1 UNK         0.0806 
    115 H115       30.2097   30.5082    1.5900 H         1 UNK         0.3010 
    116 H116       31.2269   33.0713    2.2602 H         1 UNK         0.0829 
    117 H117       33.0552   32.4896    0.6260 H         1 UNK         0.0813 
    118 H118       33.6736   32.4208    2.2663 H         1 UNK         0.0813 
    119 H119       33.2852   30.9321    1.4164 H         1 UNK         0.0813 
    120 H120       31.5558   33.0370    4.5062 H         1 UNK         0.3038 
    121 H121       30.4972   30.8167    5.9537 H         1 UNK         0.0769 
    122 H122       31.9739   33.3129    6.9528 H         1 UNK         0.0811 
    123 H123       31.0305   32.2162    7.9518 H         1 UNK         0.0811 
    124 H124       30.2320   33.1637    6.7090 H         1 UNK         0.0811 
    125 H125       33.7550   31.5959    5.0194 H         1 UNK         0.3204 
    126 H126       34.8021   29.1656    6.3395 H         1 UNK         0.0748 
    127 H127       36.8419   30.4272    7.0664 H         1 UNK         0.0771 
    128 H128       36.0915   31.9448    6.5865 H         1 UNK         0.0771 
    129 H129       35.4083   30.9978    7.9061 H         1 UNK         0.0771 
    130 H130       34.3071   28.5152    4.1056 H         1 UNK         0.2980 
    131 H131       35.7962   29.5671    1.8994 H         1 UNK         0.0545 
    132 H132       36.9548   27.4941    4.4477 H         1 UNK         0.3459 
    133 H133       38.3652   26.9445    3.5784 H         1 UNK         0.3459 
    134 H134       34.9490   27.5104    0.6822 H         1 UNK         0.0616 
    135 H135       33.7344   28.5381    1.3682 H         1 UNK         0.0616 
    136 H136       31.7484   26.2717    1.3827 H         1 UNK         0.0634 
    137 H137       31.8461   27.7517    2.2993 H         1 UNK         0.0634 
@<TRIPOS>BOND
     1    1    2 1    
     2    1   72 1    
     3    1   73 1    
     4    1   74 1    
     5    2    3 2    
     6    2    4 am   BACKBONE|DICT|INTERRES
     7    4    5 1    
     8    4   75 1    
     9    5    6 1    
    10    5   35 1    
    11    5   76 1    
    12    6    7 1    
    13    6   77 1    
    14    6   78 1    
    15    7    8 1    
    16    8    9 1    
    17    8   79 1    
    18    8   80 1    
    19    9   10 ar   
    20    9   14 ar   
    21   10   11 ar   
    22   10   81 1    
    23   11   12 ar   
    24   11   71 1    
    25   12   13 ar   
    26   12   82 1    
    27   13   14 ar   
    28   13   15 1    
    29   14   83 1    
    30   15   16 1    
    31   15   84 1    
    32   15   85 1    
    33   16   17 1    
    34   17   18 1    
    35   17   86 1    
    36   17   87 1    
    37   18   19 1    
    38   18   37 1    
    39   18   88 1    
    40   19   20 am   BACKBONE|DICT|INTERRES
    41   19   89 1    
    42   20   21 2    
    43   20   22 1    
    44   22   23 1    
    45   22   24 1    
    46   22   90 1    
    47   23   91 1    
    48   23   92 1    
    49   23   93 1    
    50   24   25 am   BACKBONE|DICT|INTERRES
    51   24   94 1    
    52   25   26 2    
    53   25   27 1    
    54   27   28 1    
    55   27   29 1    
    56   27   95 1    
    57   28   96 1    
    58   28   97 1    
    59   28   98 1    
    60   29   30 am   BACKBONE|DICT|INTERRES
    61   29   99 1    
    62   30   31 2    
    63   30   32 1    
    64   32   33 1    
    65   32   34 1    
    66   32  100 1    
    67   33  101 1    
    68   33  102 1    
    69   33  103 1    
    70   34   35 am   BACKBONE|DICT|INTERRES
    71   34  104 1    
    72   35   36 2    
    73   37   38 2    
    74   37   39 am   BACKBONE|DICT|INTERRES
    75   39   40 1    
    76   39  105 1    
    77   40   41 1    
    78   40   42 1    
    79   40  106 1    
    80   41  107 1    
    81   41  108 1    
    82   41  109 1    
    83   42   43 2    
    84   42   44 am   BACKBONE|DICT|INTERRES
    85   44   45 1    
    86   44  110 1    
    87   45   46 1    
    88   45   47 1    
    89   45  111 1    
    90   46  112 1    
    91   46  113 1    
    92   46  114 1    
    93   47   48 2    
    94   47   49 am   BACKBONE|DICT|INTERRES
    95   49   50 1    
    96   49  115 1    
    97   50   51 1    
    98   50   52 1    
    99   50  116 1    
   100   51  117 1    
   101   51  118 1    
   102   51  119 1    
   103   52   53 2    
   104   52   54 am   BACKBONE|DICT|INTERRES
   105   54   55 1    
   106   54  120 1    
   107   55   56 1    
   108   55   57 1    
   109   55  121 1    
   110   56  122 1    
   111   56  123 1    
   112   56  124 1    
   113   57   58 2    
   114   57   59 am   BACKBONE|DICT|INTERRES
   115   59   60 1    
   116   59  125 1    
   117   60   61 1    
   118   60   62 1    
   119   60  126 1    
   120   61  127 1    
   121   61  128 1    
   122   61  129 1    
   123   62   63 2    
   124   62   64 am   BACKBONE|DICT|INTERRES
   125   64   65 1    
   126   64  130 1    
   127   65   66 1    
   128   65   69 1    
   129   65  131 1    
   130   66   67 am   BACKBONE|DICT|INTERRES
   131   66   68 2    
   132   67  132 1    
   133   67  133 1    
   134   69   70 1    
   135   69  134 1    
   136   69  135 1    
   137   70   71 1    
   138   71  136 1    
   139   71  137 1    
@<TRIPOS>SUBSTRUCTURE
     1 UNK         1 GROUP             0       ****    0 ROOT    
