@<TRIPOS>MOLECULE
3R136
137   139    1
SMALL
USER_CHARGES


@<TRIPOS>ATOM
      1 CA         26.5949   22.2978    0.9750 C.3       0 UNK        -0.1979 
      2 C          27.5332   22.0126   -0.1890 C.2       0 UNK         0.4864 
      3 O          27.9812   20.8760   -0.3485 O.2       0 UNK        -0.5359 
      4 N          27.8374   23.0345   -0.9934 N.am      1 UNK        -0.4318 
      5 CA         28.7613   22.9706   -2.1268 C.3       1 UNK         0.0824 
      6 C6         30.2618   22.9965   -1.7103 C.3       12 UNK        -0.0944 
      7 S7         30.6840   24.2815   -0.4783 S.3       12 UNK        -0.2672 
      8 C8         31.0963   23.2309    0.9567 C.3       12 UNK         0.0333 
      9 C9         31.2510   23.9996    2.2659 C.ar      12 UNK        -0.0807 
     10 C10        31.9339   25.2198    2.3166 C.ar      12 UNK        -0.0894 
     11 C11        32.0852   25.9037    3.5261 C.ar      12 UNK        -0.0804 
     12 C12        31.5816   25.3398    4.7013 C.ar      12 UNK        -0.0824 
     13 C13        30.9002   24.1191    4.6693 C.ar      12 UNK        -0.0762 
     14 C14        30.7351   23.4576    3.4483 C.ar      12 UNK        -0.0782 
     15 C15        30.3495   23.5100    5.9534 C.3       12 UNK         0.0230 
     16 S16        29.2320   24.6418    6.8440 S.3       12 UNK        -0.2608 
     17 C17        27.8129   24.7684    5.6993 C.3       12 UNK        -0.0989 
     18 CA         27.9164   25.9359    4.6846 C.3       5 UNK         0.0716 
     19 N          26.7909   25.9286    3.7483 N.am      5 UNK        -0.4135 
     20 C          26.6706   26.7470    2.6952 C.2       4 UNK         0.5031 
     21 O          27.5304   27.5725    2.3653 O.2       4 UNK        -0.5229 
     22 CA         25.3415   26.6513    1.9219 C.3       4 UNK         0.0329 
     23 CB         24.2178   27.3675    2.6905 C.3       4 UNK        -0.2001 
     24 N          25.4359   27.2268    0.5793 N.am      4 UNK        -0.4303 
     25 C          26.1693   26.7100   -0.4125 C.2       3 UNK         0.5044 
     26 O          26.7583   25.6255   -0.3346 O.2       3 UNK        -0.5152 
     27 CA         26.2786   27.5398   -1.7023 C.3       3 UNK         0.0319 
     28 CB         26.3950   29.0574   -1.4516 C.3       3 UNK        -0.2001 
     29 N          27.4495   27.0434   -2.4092 N.am      3 UNK        -0.4354 
     30 C          27.6886   27.0827   -3.7217 C.2       2 UNK         0.4964 
     31 O          27.0131   27.7181   -4.5317 O.2       2 UNK        -0.5047 
     32 CA         28.8762   26.2315   -4.2125 C.3       2 UNK         0.0288 
     33 CB         30.1414   27.0956   -4.3402 C.3       2 UNK        -0.2113 
     34 N          29.1621   25.0807   -3.3426 N.am      2 UNK        -0.4145 
     35 C          28.3381   24.0388   -3.1496 C.2       1 UNK         0.5006 
     36 O          27.2631   23.9052   -3.7383 O.2       1 UNK        -0.5103 
     37 C          28.0442   27.3179    5.3624 C.2       5 UNK         0.5055 
     38 O          27.0582   27.8253    5.9012 O.2       5 UNK        -0.5220 
     39 N          29.2483   27.8994    5.2674 N.am      6 UNK        -0.4450 
     40 CA         29.6434   29.2459    5.7045 C.3       6 UNK         0.0367 
     41 CB         29.3992   29.4512    7.2142 C.3       6 UNK        -0.1929 
     42 C          29.0622   30.3968    4.8541 C.2       6 UNK         0.5070 
     43 O          29.3366   31.5566    5.1648 O.2       6 UNK        -0.5237 
     44 N          28.3105   30.0823    3.7889 N.am      7 UNK        -0.4739 
     45 CA         27.8642   31.0399    2.7727 C.3       7 UNK         0.0276 
     46 CB         26.3821   30.7988    2.4433 C.3       7 UNK        -0.1927 
     47 C          28.7217   30.9201    1.5040 C.2       7 UNK         0.5013 
     48 O          28.9798   31.9348    0.8567 O.2       7 UNK        -0.5193 
     49 N          29.1553   29.6913    1.1788 N.am      8 UNK        -0.4253 
     50 CA         30.0125   29.3618    0.0348 C.3       8 UNK         0.0242 
     51 CB         30.1597   27.8346   -0.0468 C.3       8 UNK        -0.2000 
     52 C          31.3993   30.0287    0.0784 C.2       8 UNK         0.4948 
     53 O          31.9351   30.3785   -0.9739 O.2       8 UNK        -0.5275 
     54 N          31.9410   30.1997    1.2881 N.am      9 UNK        -0.4246 
     55 CA         33.1978   30.8685    1.6056 C.3       9 UNK         0.0261 
     56 CB         34.4054   30.0242    1.1480 C.3       9 UNK        -0.1959 
     57 C          33.2235   31.0967    3.1211 C.2       9 UNK         0.5033 
     58 O          32.4120   30.5074    3.8424 O.2       9 UNK        -0.5390 
     59 N          34.1668   31.9204    3.5908 N.am      10 UNK        -0.4215 
     60 CA         34.3829   32.2274    5.0080 C.3       10 UNK         0.0240 
     61 CB         35.1227   33.5744    5.1188 C.3       10 UNK        -0.1982 
     62 C          35.1149   31.0841    5.7420 C.2       10 UNK         0.4970 
     63 O          36.2239   31.2820    6.2421 O.2       10 UNK        -0.4916 
     64 N          34.4866   29.9032    5.7773 N.am      11 UNK        -0.4279 
     65 CA         34.9992   28.6903    6.4386 C.3       11 UNK         0.1003 
     66 C          34.9712   28.7386    7.9950 C.2       11 UNK         0.5709 
     67 N          34.2727   29.6782    8.6221 N.am      11 UNK        -0.7358 
     68 O          35.6027   27.9091    8.6454 O.2       11 UNK        -0.4999 
     69 C69        34.3010   27.4053    5.9194 C.3       12 UNK        -0.0954 
     70 S70        34.4877   27.1729    4.1177 S.3       12 UNK        -0.2268 
     71 C71        32.7633   27.2643    3.5473 C.3       12 UNK         0.0203 
     72 H72        25.7149   21.6582    0.9144 H         1 UNK         0.0888 
     73 H73        27.0996   22.0981    1.9198 H         1 UNK         0.0888 
     74 H74        26.2603   23.3347    0.9837 H         1 UNK         0.0888 
     75 H75        27.4305   23.9518   -0.8139 H         1 UNK         0.3017 
     76 H76        28.5911   22.0213   -2.6398 H         1 UNK         0.0873 
     77 H77        30.5241   22.0197   -1.3012 H         1 UNK         0.0745 
     78 H78        30.9105   23.1104   -2.5808 H         1 UNK         0.0745 
     79 H79        32.0249   22.6972    0.7506 H         1 UNK         0.0705 
     80 H80        30.3180   22.4736    1.0629 H         1 UNK         0.0705 
     81 H81        32.3417   25.6433    1.4091 H         1 UNK         0.1334 
     82 H82        31.7049   25.8516    5.6450 H         1 UNK         0.1417 
     83 H83        30.2141   22.5101    3.4201 H         1 UNK         0.1562 
     84 H84        31.1861   23.2588    6.6068 H         1 UNK         0.0748 
     85 H85        29.8249   22.5742    5.7541 H         1 UNK         0.0748 
     86 H86        26.9080   24.8735    6.3011 H         1 UNK         0.0940 
     87 H87        27.7086   23.8207    5.1682 H         1 UNK         0.0940 
     88 H88        28.8047   25.7726    4.0728 H         1 UNK         0.0703 
     89 H89        26.0233   25.3149    3.9769 H         1 UNK         0.3081 
     90 H90        25.0797   25.5959    1.8197 H         1 UNK         0.0719 
     91 H91        24.4317   28.4274    2.8303 H         1 UNK         0.0809 
     92 H92        23.2644   27.2843    2.1682 H         1 UNK         0.0809 
     93 H93        24.0777   26.9342    3.6816 H         1 UNK         0.0809 
     94 H94        25.0022   28.1268    0.4408 H         1 UNK         0.2990 
     95 H95        25.3911   27.3366   -2.3049 H         1 UNK         0.0690 
     96 H96        26.6367   29.5969   -2.3674 H         1 UNK         0.0788 
     97 H97        27.1670   29.2849   -0.7188 H         1 UNK         0.0788 
     98 H98        25.4576   29.4715   -1.0797 H         1 UNK         0.0788 
     99 H99        28.0235   26.4342   -1.8404 H         1 UNK         0.2993 
    100 H100       28.6162   25.8487   -5.2018 H         1 UNK         0.0949 
    101 H101       30.4536   27.5019   -3.3775 H         1 UNK         0.0767 
    102 H102       30.9738   26.5235   -4.7505 H         1 UNK         0.0767 
    103 H103       29.9698   27.9403   -5.0091 H         1 UNK         0.0767 
    104 H104       30.0163   25.1137   -2.8018 H         1 UNK         0.3013 
    105 H105       29.9676   27.3830    4.7814 H         1 UNK         0.3121 
    106 H106       30.7220   29.2940    5.5532 H         1 UNK         0.0774 
    107 H107       29.8588   30.3779    7.5597 H         1 UNK         0.0815 
    108 H108       28.3370   29.5127    7.4512 H         1 UNK         0.0815 
    109 H109       29.8297   28.6395    7.8005 H         1 UNK         0.0815 
    110 H110       28.1035   29.1069    3.6052 H         1 UNK         0.2987 
    111 H111       27.9628   32.0619    3.1453 H         1 UNK         0.0949 
    112 H112       26.0099   31.5614    1.7579 H         1 UNK         0.0806 
    113 H113       26.2233   29.8329    1.9658 H         1 UNK         0.0806 
    114 H114       25.7639   30.8379    3.3402 H         1 UNK         0.0806 
    115 H115       28.8005   28.9052    1.7154 H         1 UNK         0.3010 
    116 H116       29.5116   29.7112   -0.8701 H         1 UNK         0.0829 
    117 H117       29.1921   27.3434   -0.1395 H         1 UNK         0.0813 
    118 H118       30.7605   27.5415   -0.9083 H         1 UNK         0.0813 
    119 H119       30.6455   27.4309    0.8416 H         1 UNK         0.0813 
    120 H120       31.4181   29.9265    2.1119 H         1 UNK         0.3038 
    121 H121       33.2122   31.8398    1.1071 H         1 UNK         0.0769 
    122 H122       34.4322   29.0523    1.6394 H         1 UNK         0.0811 
    123 H123       35.3466   30.5259    1.3746 H         1 UNK         0.0811 
    124 H124       34.3911   29.8513    0.0722 H         1 UNK         0.0811 
    125 H125       34.8162   32.3365    2.9384 H         1 UNK         0.3204 
    126 H126       33.4104   32.3469    5.4912 H         1 UNK         0.0748 
    127 H127       35.2723   33.8537    6.1628 H         1 UNK         0.0771 
    128 H128       36.1054   33.5378    4.6466 H         1 UNK         0.0771 
    129 H129       34.5548   34.3783    4.6501 H         1 UNK         0.0771 
    130 H130       33.5983   29.8256    5.2936 H         1 UNK         0.2980 
    131 H131       36.0546   28.6090    6.1713 H         1 UNK         0.0545 
    132 H132       33.7518   30.3634    8.1001 H         1 UNK         0.3459 
    133 H133       34.2684   29.6990    9.6296 H         1 UNK         0.3459 
    134 H134       33.2455   27.4246    6.1911 H         1 UNK         0.0616 
    135 H135       34.7207   26.5196    6.4000 H         1 UNK         0.0616 
    136 H136       32.7520   27.6959    2.5465 H         1 UNK         0.0634 
    137 H137       32.1959   27.9503    4.1740 H         1 UNK         0.0634 
@<TRIPOS>BOND
     1    1    2 1    
     2    1   72 1    
     3    1   73 1    
     4    1   74 1    
     5    2    3 2    
     6    2    4 am   BACKBONE|DICT|INTERRES
     7    4    5 1    
     8    4   75 1    
     9    5    6 1    
    10    5   35 1    
    11    5   76 1    
    12    6    7 1    
    13    6   77 1    
    14    6   78 1    
    15    7    8 1    
    16    8    9 1    
    17    8   79 1    
    18    8   80 1    
    19    9   10 ar   
    20    9   14 ar   
    21   10   11 ar   
    22   10   81 1    
    23   11   12 ar   
    24   11   71 1    
    25   12   13 ar   
    26   12   82 1    
    27   13   14 ar   
    28   13   15 1    
    29   14   83 1    
    30   15   16 1    
    31   15   84 1    
    32   15   85 1    
    33   16   17 1    
    34   17   18 1    
    35   17   86 1    
    36   17   87 1    
    37   18   19 1    
    38   18   37 1    
    39   18   88 1    
    40   19   20 am   BACKBONE|DICT|INTERRES
    41   19   89 1    
    42   20   21 2    
    43   20   22 1    
    44   22   23 1    
    45   22   24 1    
    46   22   90 1    
    47   23   91 1    
    48   23   92 1    
    49   23   93 1    
    50   24   25 am   BACKBONE|DICT|INTERRES
    51   24   94 1    
    52   25   26 2    
    53   25   27 1    
    54   27   28 1    
    55   27   29 1    
    56   27   95 1    
    57   28   96 1    
    58   28   97 1    
    59   28   98 1    
    60   29   30 am   BACKBONE|DICT|INTERRES
    61   29   99 1    
    62   30   31 2    
    63   30   32 1    
    64   32   33 1    
    65   32   34 1    
    66   32  100 1    
    67   33  101 1    
    68   33  102 1    
    69   33  103 1    
    70   34   35 am   BACKBONE|DICT|INTERRES
    71   34  104 1    
    72   35   36 2    
    73   37   38 2    
    74   37   39 am   BACKBONE|DICT|INTERRES
    75   39   40 1    
    76   39  105 1    
    77   40   41 1    
    78   40   42 1    
    79   40  106 1    
    80   41  107 1    
    81   41  108 1    
    82   41  109 1    
    83   42   43 2    
    84   42   44 am   BACKBONE|DICT|INTERRES
    85   44   45 1    
    86   44  110 1    
    87   45   46 1    
    88   45   47 1    
    89   45  111 1    
    90   46  112 1    
    91   46  113 1    
    92   46  114 1    
    93   47   48 2    
    94   47   49 am   BACKBONE|DICT|INTERRES
    95   49   50 1    
    96   49  115 1    
    97   50   51 1    
    98   50   52 1    
    99   50  116 1    
   100   51  117 1    
   101   51  118 1    
   102   51  119 1    
   103   52   53 2    
   104   52   54 am   BACKBONE|DICT|INTERRES
   105   54   55 1    
   106   54  120 1    
   107   55   56 1    
   108   55   57 1    
   109   55  121 1    
   110   56  122 1    
   111   56  123 1    
   112   56  124 1    
   113   57   58 2    
   114   57   59 am   BACKBONE|DICT|INTERRES
   115   59   60 1    
   116   59  125 1    
   117   60   61 1    
   118   60   62 1    
   119   60  126 1    
   120   61  127 1    
   121   61  128 1    
   122   61  129 1    
   123   62   63 2    
   124   62   64 am   BACKBONE|DICT|INTERRES
   125   64   65 1    
   126   64  130 1    
   127   65   66 1    
   128   65   69 1    
   129   65  131 1    
   130   66   67 am   BACKBONE|DICT|INTERRES
   131   66   68 2    
   132   67  132 1    
   133   67  133 1    
   134   69   70 1    
   135   69  134 1    
   136   69  135 1    
   137   70   71 1    
   138   71  136 1    
   139   71  137 1    
@<TRIPOS>SUBSTRUCTURE
     1 UNK         1 GROUP             0       ****    0 ROOT    
