@<TRIPOS>MOLECULE
3R136
137   139    1
SMALL
USER_CHARGES


@<TRIPOS>ATOM
      1 CA         26.5317   21.1938    1.2344 C.3       0 UNK        -0.1979 
      2 C          27.1392   22.0065    0.1013 C.2       0 UNK         0.4864 
      3 O          26.4205   22.4101   -0.8136 O.2       0 UNK        -0.5359 
      4 N          28.4574   22.2352    0.1487 N.am      1 UNK        -0.4318 
      5 CA         29.2238   22.9509   -0.8789 C.3       1 UNK         0.0824 
      6 C6         30.7512   22.7559   -0.7098 C.3       12 UNK        -0.0944 
      7 S7         31.2217   20.9928   -0.6253 S.3       12 UNK        -0.2672 
      8 C8         32.6513   21.0210    0.5081 C.3       12 UNK         0.0333 
      9 C9         32.3460   21.6508    1.8638 C.ar      12 UNK        -0.0807 
     10 C10        33.1446   22.6957    2.3394 C.ar      12 UNK        -0.0894 
     11 C11        32.8976   23.2817    3.5849 C.ar      12 UNK        -0.0804 
     12 C12        31.8334   22.8023    4.3587 C.ar      12 UNK        -0.0824 
     13 C13        31.0110   21.7757    3.8865 C.ar      12 UNK        -0.0762 
     14 C14        31.2807   21.1923    2.6453 C.ar      12 UNK        -0.0782 
     15 C15        29.8339   21.2938    4.7211 C.3       12 UNK         0.0230 
     16 S16        28.2751   22.0889    4.2135 S.3       12 UNK        -0.2608 
     17 C17        28.4988   23.8080    4.7891 C.3       12 UNK        -0.0989 
     18 CA         28.6409   24.8207    3.6157 C.3       5 UNK         0.0716 
     19 N          27.4991   24.8456    2.6921 N.am      5 UNK        -0.4135 
     20 C          26.2185   25.0996    2.9935 C.2       4 UNK         0.5031 
     21 O          25.8079   25.3406    4.1304 O.2       4 UNK        -0.5229 
     22 CA         25.2355   25.0727    1.8062 C.3       4 UNK         0.0329 
     23 CB         23.7568   25.1400    2.2452 C.3       4 UNK        -0.2001 
     24 N          25.5271   26.1007    0.8007 N.am      4 UNK        -0.4303 
     25 C          25.5321   27.4321    0.9652 C.2       3 UNK         0.5044 
     26 O          25.2938   27.9964    2.0336 O.2       3 UNK        -0.5152 
     27 CA         25.8495   28.2671   -0.2907 C.3       3 UNK         0.0319 
     28 CB         25.9098   29.7805   -0.0054 C.3       3 UNK        -0.2001 
     29 N          27.1137   27.8395   -0.8939 N.am      3 UNK        -0.4354 
     30 C          27.2326   26.8883   -1.8293 C.2       2 UNK         0.4964 
     31 O          26.2664   26.2886   -2.3038 O.2       2 UNK        -0.5047 
     32 CA         28.6464   26.4999   -2.3106 C.3       2 UNK         0.0288 
     33 CB         29.7928   27.3785   -1.7611 C.3       2 UNK        -0.2113 
     34 N          28.9275   25.0794   -2.0662 N.am      2 UNK        -0.4145 
     35 C          28.8822   24.4529   -0.8805 C.2       1 UNK         0.5006 
     36 O          28.6212   25.0130    0.1880 O.2       1 UNK        -0.5103 
     37 C          29.0107   26.2464    4.0799 C.2       5 UNK         0.5055 
     38 O          29.3683   26.4479    5.2418 O.2       5 UNK        -0.5220 
     39 N          28.9344   27.2130    3.1573 N.am      6 UNK        -0.4450 
     40 CA         29.2775   28.6162    3.3613 C.3       6 UNK         0.0367 
     41 CB         28.1342   29.3514    4.0831 C.3       6 UNK        -0.1929 
     42 C          29.5482   29.2483    1.9948 C.2       6 UNK         0.5070 
     43 O          28.9778   28.8067    0.9974 O.2       6 UNK        -0.5237 
     44 N          30.3912   30.2796    1.9748 N.am      7 UNK        -0.4739 
     45 CA         30.7386   31.0690    0.7982 C.3       7 UNK         0.0276 
     46 CB         31.9824   30.4672    0.1173 C.3       7 UNK        -0.1927 
     47 C          30.9377   32.5169    1.2610 C.2       7 UNK         0.5013 
     48 O          32.0599   33.0250    1.2421 O.2       7 UNK        -0.5193 
     49 N          29.8382   33.1279    1.7282 N.am      8 UNK        -0.4253 
     50 CA         29.7732   34.4213    2.4193 C.3       8 UNK         0.0242 
     51 CB         30.2067   35.5847    1.4960 C.3       8 UNK        -0.2000 
     52 C          30.5245   34.3449    3.7621 C.2       8 UNK         0.4948 
     53 O          30.2393   33.4407    4.5492 O.2       8 UNK        -0.5275 
     54 N          31.4758   35.2542    4.0096 N.am      9 UNK        -0.4246 
     55 CA         32.3124   35.2999    5.2152 C.3       9 UNK         0.0261 
     56 CB         32.7980   36.7470    5.4259 C.3       9 UNK        -0.1959 
     57 C          33.4759   34.2828    5.1762 C.2       9 UNK         0.5033 
     58 O          34.6107   34.6346    5.5059 O.2       9 UNK        -0.5390 
     59 N          33.1817   33.0443    4.7700 N.am      10 UNK        -0.4215 
     60 CA         34.1045   31.9224    4.6216 C.3       10 UNK         0.0240 
     61 CB         35.0207   32.1399    3.3999 C.3       10 UNK        -0.1982 
     62 C          33.2824   30.6393    4.4533 C.2       10 UNK         0.4970 
     63 O          32.0840   30.7153    4.1697 O.2       10 UNK        -0.4916 
     64 N          33.9405   29.4856    4.6079 N.am      11 UNK        -0.4279 
     65 CA         33.3760   28.1711    4.2749 C.3       11 UNK         0.1003 
     66 C          33.3666   27.9256    2.7392 C.2       11 UNK         0.5709 
     67 N          32.4044   27.1661    2.2347 N.am      11 UNK        -0.7358 
     68 O          34.2447   28.3852    2.0117 O.2       11 UNK        -0.4999 
     69 C69        34.1048   27.0388    5.0442 C.3       12 UNK        -0.0954 
     70 S70        33.0442   25.5692    5.2423 S.3       12 UNK        -0.2268 
     71 C71        33.8143   24.4094    4.0612 C.3       12 UNK         0.0203 
     72 H72        27.2852   20.5945    1.7450 H         1 UNK         0.0888 
     73 H73        26.0620   21.8501    1.9659 H         1 UNK         0.0888 
     74 H74        25.7724   20.5144    0.8480 H         1 UNK         0.0888 
     75 H75        28.9968   21.8997    0.9331 H         1 UNK         0.3017 
     76 H76        28.9327   22.5358   -1.8465 H         1 UNK         0.0873 
     77 H77        31.2900   23.2061   -1.5457 H         1 UNK         0.0745 
     78 H78        31.0972   23.2750    0.1856 H         1 UNK         0.0745 
     79 H79        33.4705   21.5450    0.0131 H         1 UNK         0.0705 
     80 H80        32.9937   19.9975    0.6658 H         1 UNK         0.0705 
     81 H81        33.9701   23.0531    1.7385 H         1 UNK         0.1334 
     82 H82        31.6350   23.2290    5.3312 H         1 UNK         0.1417 
     83 H83        30.6571   20.3862    2.2830 H         1 UNK         0.1562 
     84 H84        30.0101   21.4747    5.7827 H         1 UNK         0.0748 
     85 H85        29.7275   20.2134    4.6130 H         1 UNK         0.0748 
     86 H86        29.3719   23.8514    5.4406 H         1 UNK         0.0940 
     87 H87        27.6541   24.0700    5.4273 H         1 UNK         0.0940 
     88 H88        29.4906   24.4915    3.0149 H         1 UNK         0.0703 
     89 H89        27.7569   24.7538    1.7096 H         1 UNK         0.3081 
     90 H90        25.3763   24.1144    1.3069 H         1 UNK         0.0719 
     91 H91        23.5269   26.0715    2.7637 H         1 UNK         0.0809 
     92 H92        23.0852   25.0572    1.3909 H         1 UNK         0.0809 
     93 H93        23.5167   24.3230    2.9266 H         1 UNK         0.0809 
     94 H94        25.7633   25.7555   -0.1220 H         1 UNK         0.2990 
     95 H95        25.0326   28.1050   -0.9970 H         1 UNK         0.0690 
     96 H96        26.1391   30.3456   -0.9088 H         1 UNK         0.0788 
     97 H97        26.6639   30.0244    0.7429 H         1 UNK         0.0788 
     98 H98        24.9523   30.1438    0.3697 H         1 UNK         0.0788 
     99 H99        27.9537   28.2091   -0.4508 H         1 UNK         0.2993 
    100 H100       28.6287   26.6326   -3.3935 H         1 UNK         0.0949 
    101 H101       29.9743   27.2010   -0.7018 H         1 UNK         0.0767 
    102 H102       30.7251   27.1688   -2.2853 H         1 UNK         0.0767 
    103 H103       29.5876   28.4417   -1.8938 H         1 UNK         0.0767 
    104 H104       29.1249   24.5303   -2.8913 H         1 UNK         0.3013 
    105 H105       28.6597   26.9891    2.2074 H         1 UNK         0.3121 
    106 H106       30.1843   28.6796    3.9636 H         1 UNK         0.0774 
    107 H107       28.3823   30.4026    4.2369 H         1 UNK         0.0815 
    108 H108       27.2078   29.3125    3.5088 H         1 UNK         0.0815 
    109 H109       27.9378   28.9192    5.0641 H         1 UNK         0.0815 
    110 H110       30.8502   30.5622    2.8410 H         1 UNK         0.2987 
    111 H111       29.9126   31.0619    0.0831 H         1 UNK         0.0949 
    112 H112       32.8422   30.4588    0.7882 H         1 UNK         0.0806 
    113 H113       31.8004   29.4418   -0.2048 H         1 UNK         0.0806 
    114 H114       32.2606   31.0429   -0.7660 H         1 UNK         0.0806 
    115 H115       28.9820   32.5915    1.7417 H         1 UNK         0.3010 
    116 H116       28.7240   34.5803    2.6729 H         1 UNK         0.0829 
    117 H117       29.6267   35.5844    0.5730 H         1 UNK         0.0813 
    118 H118       30.0379   36.5506    1.9738 H         1 UNK         0.0813 
    119 H119       31.2600   35.5304    1.2192 H         1 UNK         0.0813 
    120 H120       31.6850   35.9321    3.2910 H         1 UNK         0.3038 
    121 H121       31.6951   35.0340    6.0761 H         1 UNK         0.0769 
    122 H122       33.3634   36.8401    6.3542 H         1 UNK         0.0811 
    123 H123       31.9606   37.4419    5.4910 H         1 UNK         0.0811 
    124 H124       33.4470   37.0767    4.6137 H         1 UNK         0.0811 
    125 H125       32.2112   32.8171    4.5618 H         1 UNK         0.3204 
    126 H126       34.7051   31.8364    5.5293 H         1 UNK         0.0748 
    127 H127       34.4414   32.2471    2.4816 H         1 UNK         0.0771 
    128 H128       35.6357   33.0327    3.5116 H         1 UNK         0.0771 
    129 H129       35.7012   31.2994    3.2585 H         1 UNK         0.0771 
    130 H130       34.9301   29.5065    4.8052 H         1 UNK         0.2980 
    131 H131       32.3392   28.1819    4.6152 H         1 UNK         0.0545 
    132 H132       31.7217   26.7340    2.8344 H         1 UNK         0.3459 
    133 H133       32.3961   26.9867    1.2441 H         1 UNK         0.3459 
    134 H134       34.3535   27.3738    6.0525 H         1 UNK         0.0616 
    135 H135       35.0547   26.7753    4.5750 H         1 UNK         0.0616 
    136 H136       34.1592   24.9752    3.1945 H         1 UNK         0.0634 
    137 H137       34.7016   23.9749    4.5231 H         1 UNK         0.0634 
@<TRIPOS>BOND
     1    1    2 1    
     2    1   72 1    
     3    1   73 1    
     4    1   74 1    
     5    2    3 2    
     6    2    4 am   BACKBONE|DICT|INTERRES
     7    4    5 1    
     8    4   75 1    
     9    5    6 1    
    10    5   35 1    
    11    5   76 1    
    12    6    7 1    
    13    6   77 1    
    14    6   78 1    
    15    7    8 1    
    16    8    9 1    
    17    8   79 1    
    18    8   80 1    
    19    9   10 ar   
    20    9   14 ar   
    21   10   11 ar   
    22   10   81 1    
    23   11   12 ar   
    24   11   71 1    
    25   12   13 ar   
    26   12   82 1    
    27   13   14 ar   
    28   13   15 1    
    29   14   83 1    
    30   15   16 1    
    31   15   84 1    
    32   15   85 1    
    33   16   17 1    
    34   17   18 1    
    35   17   86 1    
    36   17   87 1    
    37   18   19 1    
    38   18   37 1    
    39   18   88 1    
    40   19   20 am   BACKBONE|DICT|INTERRES
    41   19   89 1    
    42   20   21 2    
    43   20   22 1    
    44   22   23 1    
    45   22   24 1    
    46   22   90 1    
    47   23   91 1    
    48   23   92 1    
    49   23   93 1    
    50   24   25 am   BACKBONE|DICT|INTERRES
    51   24   94 1    
    52   25   26 2    
    53   25   27 1    
    54   27   28 1    
    55   27   29 1    
    56   27   95 1    
    57   28   96 1    
    58   28   97 1    
    59   28   98 1    
    60   29   30 am   BACKBONE|DICT|INTERRES
    61   29   99 1    
    62   30   31 2    
    63   30   32 1    
    64   32   33 1    
    65   32   34 1    
    66   32  100 1    
    67   33  101 1    
    68   33  102 1    
    69   33  103 1    
    70   34   35 am   BACKBONE|DICT|INTERRES
    71   34  104 1    
    72   35   36 2    
    73   37   38 2    
    74   37   39 am   BACKBONE|DICT|INTERRES
    75   39   40 1    
    76   39  105 1    
    77   40   41 1    
    78   40   42 1    
    79   40  106 1    
    80   41  107 1    
    81   41  108 1    
    82   41  109 1    
    83   42   43 2    
    84   42   44 am   BACKBONE|DICT|INTERRES
    85   44   45 1    
    86   44  110 1    
    87   45   46 1    
    88   45   47 1    
    89   45  111 1    
    90   46  112 1    
    91   46  113 1    
    92   46  114 1    
    93   47   48 2    
    94   47   49 am   BACKBONE|DICT|INTERRES
    95   49   50 1    
    96   49  115 1    
    97   50   51 1    
    98   50   52 1    
    99   50  116 1    
   100   51  117 1    
   101   51  118 1    
   102   51  119 1    
   103   52   53 2    
   104   52   54 am   BACKBONE|DICT|INTERRES
   105   54   55 1    
   106   54  120 1    
   107   55   56 1    
   108   55   57 1    
   109   55  121 1    
   110   56  122 1    
   111   56  123 1    
   112   56  124 1    
   113   57   58 2    
   114   57   59 am   BACKBONE|DICT|INTERRES
   115   59   60 1    
   116   59  125 1    
   117   60   61 1    
   118   60   62 1    
   119   60  126 1    
   120   61  127 1    
   121   61  128 1    
   122   61  129 1    
   123   62   63 2    
   124   62   64 am   BACKBONE|DICT|INTERRES
   125   64   65 1    
   126   64  130 1    
   127   65   66 1    
   128   65   69 1    
   129   65  131 1    
   130   66   67 am   BACKBONE|DICT|INTERRES
   131   66   68 2    
   132   67  132 1    
   133   67  133 1    
   134   69   70 1    
   135   69  134 1    
   136   69  135 1    
   137   70   71 1    
   138   71  136 1    
   139   71  137 1    
@<TRIPOS>SUBSTRUCTURE
     1 UNK         1 GROUP             0       ****    0 ROOT    
