@<TRIPOS>MOLECULE
3R136
137   139    1
SMALL
USER_CHARGES


@<TRIPOS>ATOM
      1 CA         30.4048   23.6946   -3.6863 C.3       0 UNK        -0.1979 
      2 C          30.2305   23.9576   -2.1984 C.2       0 UNK         0.4864 
      3 O          30.0427   25.1093   -1.8089 O.2       0 UNK        -0.5359 
      4 N          30.2828   22.8962   -1.3794 N.am      1 UNK        -0.4318 
      5 CA         30.1589   22.8879    0.0862 C.3       1 UNK         0.0824 
      6 C6         30.1008   21.4322    0.6282 C.3       12 UNK        -0.0944 
      7 S7         31.7486   20.8106    1.0847 S.3       12 UNK        -0.2672 
      8 C8         31.5355   20.5406    2.8746 C.3       12 UNK         0.0333 
      9 C9         31.3971   21.8462    3.6477 C.ar      12 UNK        -0.0807 
     10 C10        32.5399   22.5731    3.9874 C.ar      12 UNK        -0.0894 
     11 C11        32.4414   23.7463    4.7396 C.ar      12 UNK        -0.0804 
     12 C12        31.1806   24.1925    5.1555 C.ar      12 UNK        -0.0824 
     13 C13        30.0228   23.4811    4.8140 C.ar      12 UNK        -0.0762 
     14 C14        30.1415   22.3081    4.0599 C.ar      12 UNK        -0.0782 
     15 C15        28.6492   23.9250    5.3164 C.3       12 UNK         0.0230 
     16 S16        27.7996   25.0906    4.1945 S.3       12 UNK        -0.2608 
     17 C17        28.4703   26.6760    4.7840 C.3       12 UNK        -0.0989 
     18 CA         28.4030   27.8692    3.7980 C.3       5 UNK         0.0716 
     19 N          28.9171   27.5903    2.4508 N.am      5 UNK        -0.4135 
     20 C          29.5085   28.5346    1.7024 C.2       4 UNK         0.5031 
     21 O          29.6915   29.6904    2.0881 O.2       4 UNK        -0.5229 
     22 CA         29.9778   28.1532    0.2929 C.3       4 UNK         0.0329 
     23 CB         31.2918   27.3581    0.3515 C.3       4 UNK        -0.2001 
     24 N          28.9686   27.4234   -0.4736 N.am      4 UNK        -0.4303 
     25 C          27.7648   27.9147   -0.8034 C.2       3 UNK         0.5044 
     26 O          27.3709   29.0367   -0.4882 O.2       3 UNK        -0.5152 
     27 CA         26.8197   26.9855   -1.5801 C.3       3 UNK         0.0319 
     28 CB         27.1977   26.9299   -3.0689 C.3       3 UNK        -0.2001 
     29 N          26.7887   25.6342   -1.0218 N.am      3 UNK        -0.4354 
     30 C          26.3342   25.3332    0.2035 C.2       2 UNK         0.4964 
     31 O          25.8520   26.1552    0.9800 O.2       2 UNK        -0.5047 
     32 CA         26.4817   23.8733    0.6554 C.3       2 UNK         0.0288 
     33 CB         25.3053   23.0239    0.1485 C.3       2 UNK        -0.2113 
     34 N          27.7459   23.2643    0.2364 N.am      2 UNK        -0.4145 
     35 C          28.9599   23.7075    0.5979 C.2       1 UNK         0.5006 
     36 O          29.1564   24.7158    1.2779 O.2       1 UNK        -0.5103 
     37 C          27.0575   28.6221    3.7998 C.2       5 UNK         0.5055 
     38 O          26.8112   29.3642    4.7517 O.2       5 UNK        -0.5220 
     39 N          26.2459   28.5080    2.7360 N.am      6 UNK        -0.4450 
     40 CA         25.0670   29.3598    2.5258 C.3       6 UNK         0.0367 
     41 CB         24.1925   28.8003    1.3932 C.3       6 UNK        -0.1929 
     42 C          25.4451   30.8247    2.2406 C.2       6 UNK         0.5070 
     43 O          24.8073   31.7307    2.7771 O.2       6 UNK        -0.5237 
     44 N          26.4885   31.0325    1.4248 N.am      7 UNK        -0.4739 
     45 CA         27.0469   32.3493    1.0975 C.3       7 UNK         0.0276 
     46 CB         27.8892   32.2241   -0.1833 C.3       7 UNK        -0.1927 
     47 C          27.8973   32.9628    2.2260 C.2       7 UNK         0.5013 
     48 O          28.2165   34.1498    2.1503 O.2       7 UNK        -0.5193 
     49 N          28.2741   32.1444    3.2202 N.am      8 UNK        -0.4253 
     50 CA         29.2003   32.4348    4.3229 C.3       8 UNK         0.0242 
     51 CB         28.6530   33.5474    5.2423 C.3       8 UNK        -0.2000 
     52 C          30.6443   32.6980    3.8441 C.2       8 UNK         0.4948 
     53 O          31.3886   33.4297    4.4989 O.2       8 UNK        -0.5275 
     54 N          31.0187   32.0734    2.7201 N.am      9 UNK        -0.4246 
     55 CA         32.3696   32.0658    2.1562 C.3       9 UNK         0.0261 
     56 CB         32.2610   31.9736    0.6250 C.3       9 UNK        -0.1959 
     57 C          33.2132   30.8992    2.7024 C.2       9 UNK         0.5033 
     58 O          34.4397   30.9415    2.5962 O.2       9 UNK        -0.5390 
     59 N          32.5442   29.8777    3.2549 N.am      10 UNK        -0.4215 
     60 CA         33.1255   28.6827    3.8655 C.3       10 UNK         0.0240 
     61 CB         31.9766   27.8031    4.3803 C.3       10 UNK        -0.1982 
     62 C          34.0739   29.0057    5.0397 C.2       10 UNK         0.4970 
     63 O          33.6640   29.7656    5.9179 O.2       10 UNK        -0.4916 
     64 N          35.2782   28.4277    5.1406 N.am      11 UNK        -0.4279 
     65 CA         36.0484   27.6461    4.1541 C.3       11 UNK         0.1003 
     66 C          37.5360   28.1135    4.0948 C.2       11 UNK         0.5709 
     67 N          37.9055   29.2518    4.6733 N.am      11 UNK        -0.7358 
     68 O          38.3756   27.4486    3.4922 O.2       11 UNK        -0.4999 
     69 C69        35.9183   26.1090    4.3862 C.3       12 UNK        -0.0954 
     70 S70        34.3908   25.3989    3.6902 S.3       12 UNK        -0.2268 
     71 C71        33.7088   24.5016    5.1188 C.3       12 UNK         0.0203 
     72 H72        29.5258   24.0363   -4.2320 H         1 UNK         0.0888 
     73 H73        31.2712   24.2380   -4.0621 H         1 UNK         0.0888 
     74 H74        30.5483   22.6359   -3.9014 H         1 UNK         0.0888 
     75 H75        30.4568   21.9900   -1.7899 H         1 UNK         0.3017 
     76 H76        31.0469   23.3861    0.4819 H         1 UNK         0.0873 
     77 H77        29.6686   20.7532   -0.1090 H         1 UNK         0.0745 
     78 H78        29.4485   21.3410    1.4977 H         1 UNK         0.0745 
     79 H79        32.3997   19.9893    3.2485 H         1 UNK         0.0705 
     80 H80        30.6722   19.8958    3.0471 H         1 UNK         0.0705 
     81 H81        33.5126   22.2205    3.6717 H         1 UNK         0.1334 
     82 H82        31.1044   25.0817    5.7639 H         1 UNK         0.1417 
     83 H83        29.2530   21.7428    3.8146 H         1 UNK         0.1562 
     84 H84        28.7375   24.3682    6.3095 H         1 UNK         0.0748 
     85 H85        28.0094   23.0503    5.4428 H         1 UNK         0.0748 
     86 H86        29.5147   26.5129    5.0405 H         1 UNK         0.0940 
     87 H87        27.9834   26.9282    5.7283 H         1 UNK         0.0940 
     88 H88        29.0838   28.6007    4.2376 H         1 UNK         0.0703 
     89 H89        28.8223   26.6419    2.0968 H         1 UNK         0.3081 
     90 H90        30.1754   29.0826   -0.2448 H         1 UNK         0.0719 
     91 H91        31.6741   27.1529   -0.6484 H         1 UNK         0.0809 
     92 H92        32.0627   27.9154    0.8852 H         1 UNK         0.0809 
     93 H93        31.1678   26.4026    0.8619 H         1 UNK         0.0809 
     94 H94        29.2277   26.4932   -0.7973 H         1 UNK         0.2990 
     95 H95        25.8119   27.3993   -1.5034 H         1 UNK         0.0690 
     96 H96        27.2001   27.9295   -3.5057 H         1 UNK         0.0788 
     97 H97        26.4859   26.3309   -3.6369 H         1 UNK         0.0788 
     98 H98        28.1908   26.5064   -3.2219 H         1 UNK         0.0788 
     99 H99        27.2095   24.9012   -1.5732 H         1 UNK         0.2993 
    100 H100       26.4614   23.8685    1.7472 H         1 UNK         0.0949 
    101 H101       25.2900   22.9603   -0.9403 H         1 UNK         0.0767 
    102 H102       25.3487   22.0092    0.5448 H         1 UNK         0.0767 
    103 H103       24.3525   23.4520    0.4638 H         1 UNK         0.0767 
    104 H104       27.6849   22.4400   -0.3433 H         1 UNK         0.3013 
    105 H105       26.4534   27.8258    2.0133 H         1 UNK         0.3121 
    106 H106       24.4734   29.3456    3.4426 H         1 UNK         0.0774 
    107 H107       24.7407   28.7352    0.4530 H         1 UNK         0.0815 
    108 H108       23.3224   29.4351    1.2208 H         1 UNK         0.0815 
    109 H109       23.8212   27.8047    1.6357 H         1 UNK         0.0815 
    110 H110       26.9117   30.2345    0.9559 H         1 UNK         0.2987 
    111 H111       26.2216   33.0373    0.9015 H         1 UNK         0.0949 
    112 H112       28.7286   31.5406   -0.0467 H         1 UNK         0.0806 
    113 H113       27.2910   31.8551   -1.0166 H         1 UNK         0.0806 
    114 H114       28.2991   33.1899   -0.4820 H         1 UNK         0.0806 
    115 H115       27.9655   31.1839    3.1523 H         1 UNK         0.3010 
    116 H116       29.2481   31.5195    4.9151 H         1 UNK         0.0829 
    117 H117       27.6340   33.3309    5.5628 H         1 UNK         0.0813 
    118 H118       29.2612   33.6440    6.1424 H         1 UNK         0.0813 
    119 H119       28.6514   34.5193    4.7483 H         1 UNK         0.0813 
    120 H120       30.3505   31.4375    2.2904 H         1 UNK         0.3038 
    121 H121       32.8788   32.9972    2.4125 H         1 UNK         0.0769 
    122 H122       31.7687   31.0528    0.3096 H         1 UNK         0.0811 
    123 H123       33.2484   31.9918    0.1616 H         1 UNK         0.0811 
    124 H124       31.6960   32.8120    0.2171 H         1 UNK         0.0811 
    125 H125       31.5349   29.9349    3.2548 H         1 UNK         0.3204 
    126 H126       33.6358   28.1421    3.0735 H         1 UNK         0.0748 
    127 H127       32.3454   27.0097    5.0265 H         1 UNK         0.0771 
    128 H128       31.2659   28.3782    4.9735 H         1 UNK         0.0771 
    129 H129       31.4473   27.3215    3.5601 H         1 UNK         0.0771 
    130 H130       35.8064   28.6287    5.9769 H         1 UNK         0.2980 
    131 H131       35.7048   27.8772    3.1474 H         1 UNK         0.0545 
    132 H132       38.8709   29.5360    4.6143 H         1 UNK         0.3459 
    133 H133       37.2308   29.8615    5.1066 H         1 UNK         0.3459 
    134 H134       36.7325   25.5609    3.9097 H         1 UNK         0.0616 
    135 H135       35.9926   25.8779    5.4501 H         1 UNK         0.0616 
    136 H136       33.5180   25.1997    5.9348 H         1 UNK         0.0634 
    137 H137       34.4543   23.7949    5.4863 H         1 UNK         0.0634 
@<TRIPOS>BOND
     1    1    2 1    
     2    1   72 1    
     3    1   73 1    
     4    1   74 1    
     5    2    3 2    
     6    2    4 am   BACKBONE|DICT|INTERRES
     7    4    5 1    
     8    4   75 1    
     9    5    6 1    
    10    5   35 1    
    11    5   76 1    
    12    6    7 1    
    13    6   77 1    
    14    6   78 1    
    15    7    8 1    
    16    8    9 1    
    17    8   79 1    
    18    8   80 1    
    19    9   10 ar   
    20    9   14 ar   
    21   10   11 ar   
    22   10   81 1    
    23   11   12 ar   
    24   11   71 1    
    25   12   13 ar   
    26   12   82 1    
    27   13   14 ar   
    28   13   15 1    
    29   14   83 1    
    30   15   16 1    
    31   15   84 1    
    32   15   85 1    
    33   16   17 1    
    34   17   18 1    
    35   17   86 1    
    36   17   87 1    
    37   18   19 1    
    38   18   37 1    
    39   18   88 1    
    40   19   20 am   BACKBONE|DICT|INTERRES
    41   19   89 1    
    42   20   21 2    
    43   20   22 1    
    44   22   23 1    
    45   22   24 1    
    46   22   90 1    
    47   23   91 1    
    48   23   92 1    
    49   23   93 1    
    50   24   25 am   BACKBONE|DICT|INTERRES
    51   24   94 1    
    52   25   26 2    
    53   25   27 1    
    54   27   28 1    
    55   27   29 1    
    56   27   95 1    
    57   28   96 1    
    58   28   97 1    
    59   28   98 1    
    60   29   30 am   BACKBONE|DICT|INTERRES
    61   29   99 1    
    62   30   31 2    
    63   30   32 1    
    64   32   33 1    
    65   32   34 1    
    66   32  100 1    
    67   33  101 1    
    68   33  102 1    
    69   33  103 1    
    70   34   35 am   BACKBONE|DICT|INTERRES
    71   34  104 1    
    72   35   36 2    
    73   37   38 2    
    74   37   39 am   BACKBONE|DICT|INTERRES
    75   39   40 1    
    76   39  105 1    
    77   40   41 1    
    78   40   42 1    
    79   40  106 1    
    80   41  107 1    
    81   41  108 1    
    82   41  109 1    
    83   42   43 2    
    84   42   44 am   BACKBONE|DICT|INTERRES
    85   44   45 1    
    86   44  110 1    
    87   45   46 1    
    88   45   47 1    
    89   45  111 1    
    90   46  112 1    
    91   46  113 1    
    92   46  114 1    
    93   47   48 2    
    94   47   49 am   BACKBONE|DICT|INTERRES
    95   49   50 1    
    96   49  115 1    
    97   50   51 1    
    98   50   52 1    
    99   50  116 1    
   100   51  117 1    
   101   51  118 1    
   102   51  119 1    
   103   52   53 2    
   104   52   54 am   BACKBONE|DICT|INTERRES
   105   54   55 1    
   106   54  120 1    
   107   55   56 1    
   108   55   57 1    
   109   55  121 1    
   110   56  122 1    
   111   56  123 1    
   112   56  124 1    
   113   57   58 2    
   114   57   59 am   BACKBONE|DICT|INTERRES
   115   59   60 1    
   116   59  125 1    
   117   60   61 1    
   118   60   62 1    
   119   60  126 1    
   120   61  127 1    
   121   61  128 1    
   122   61  129 1    
   123   62   63 2    
   124   62   64 am   BACKBONE|DICT|INTERRES
   125   64   65 1    
   126   64  130 1    
   127   65   66 1    
   128   65   69 1    
   129   65  131 1    
   130   66   67 am   BACKBONE|DICT|INTERRES
   131   66   68 2    
   132   67  132 1    
   133   67  133 1    
   134   69   70 1    
   135   69  134 1    
   136   69  135 1    
   137   70   71 1    
   138   71  136 1    
   139   71  137 1    
@<TRIPOS>SUBSTRUCTURE
     1 UNK         1 GROUP             0       ****    0 ROOT    
