@<TRIPOS>MOLECULE
3R136
137   139    1
SMALL
USER_CHARGES


@<TRIPOS>ATOM
      1 CA         30.4366   22.6061   -4.1584 C.3       0 UNK        -0.1979 
      2 C          29.5863   23.0584   -2.9805 C.2       0 UNK         0.4864 
      3 O          28.8595   24.0450   -3.0961 O.2       0 UNK        -0.5359 
      4 N          29.6792   22.3502   -1.8475 N.am      1 UNK        -0.4318 
      5 CA         28.9022   22.6040   -0.6329 C.3       1 UNK         0.0824 
      6 C6         29.5047   21.8409    0.5736 C.3       12 UNK        -0.0944 
      7 S7         28.7266   22.2575    2.1733 S.3       12 UNK        -0.2672 
      8 C8         30.1574   22.2924    3.2991 C.3       12 UNK         0.0333 
      9 C9         30.6914   23.7055    3.4690 C.ar      12 UNK        -0.0807 
     10 C10        30.1942   24.5156    4.4931 C.ar      12 UNK        -0.0894 
     11 C11        30.6380   25.8319    4.6498 C.ar      12 UNK        -0.0804 
     12 C12        31.6029   26.3296    3.7633 C.ar      12 UNK        -0.0824 
     13 C13        32.1343   25.5183    2.7563 C.ar      12 UNK        -0.0762 
     14 C14        31.6731   24.2067    2.6110 C.ar      12 UNK        -0.0782 
     15 C15        33.2193   26.0591    1.8373 C.3       12 UNK         0.0230 
     16 S16        32.5640   27.2500    0.6287 S.3       12 UNK        -0.2608 
     17 C17        31.5701   26.1832   -0.4746 C.3       12 UNK        -0.0989 
     18 CA         30.0622   26.5369   -0.5036 C.3       5 UNK         0.0716 
     19 N          29.4407   26.4474    0.8239 N.am      5 UNK        -0.4135 
     20 C          28.1427   26.1915    1.0208 C.2       4 UNK         0.5031 
     21 O          27.3604   25.8917    0.1139 O.2       4 UNK        -0.5229 
     22 CA         27.6247   26.2803    2.4610 C.3       4 UNK         0.0329 
     23 CB         27.3204   27.7327    2.8610 C.3       4 UNK        -0.2001 
     24 N          26.4121   25.4781    2.5463 N.am      4 UNK        -0.4303 
     25 C          26.0716   24.6539    3.5407 C.2       3 UNK         0.5044 
     26 O          26.6313   24.6353    4.6372 O.2       3 UNK        -0.5152 
     27 CA         24.9552   23.6302    3.2492 C.3       3 UNK         0.0319 
     28 CB         23.5693   24.1627    3.6641 C.3       3 UNK        -0.2001 
     29 N          24.9785   23.1196    1.8659 N.am      3 UNK        -0.4354 
     30 C          24.6337   23.7484    0.7315 C.2       2 UNK         0.4964 
     31 O          24.1182   24.8658    0.6901 O.2       2 UNK        -0.5047 
     32 CA         25.0828   23.0652   -0.5650 C.3       2 UNK         0.0288 
     33 CB         24.4466   23.6776   -1.8270 C.3       2 UNK        -0.2113 
     34 N          26.5325   23.2266   -0.6253 N.am      2 UNK        -0.4145 
     35 C          27.4161   22.2513   -0.8585 C.2       1 UNK         0.5006 
     36 O          27.1075   21.1064   -1.1997 O.2       1 UNK        -0.5103 
     37 C          29.8031   27.9021   -1.1784 C.2       5 UNK         0.5055 
     38 O          29.7800   27.9749   -2.4081 O.2       5 UNK        -0.5220 
     39 N          29.6141   28.9528   -0.3720 N.am      6 UNK        -0.4450 
     40 CA         29.3640   30.3298   -0.7787 C.3       6 UNK         0.0367 
     41 CB         30.6701   30.9837   -1.2716 C.3       6 UNK        -0.1929 
     42 C          28.8102   31.0811    0.4355 C.2       6 UNK         0.5070 
     43 O          28.9923   30.6289    1.5692 O.2       6 UNK        -0.5237 
     44 N          28.1783   32.2340    0.1901 N.am      7 UNK        -0.4739 
     45 CA         27.6700   33.1445    1.2205 C.3       7 UNK         0.0276 
     46 CB         26.5008   33.9581    0.6337 C.3       7 UNK        -0.1927 
     47 C          28.7990   34.0378    1.7729 C.2       7 UNK         0.5013 
     48 O          28.7575   35.2596    1.6140 O.2       7 UNK        -0.5193 
     49 N          29.8054   33.4062    2.3836 N.am      8 UNK        -0.4253 
     50 CA         30.9941   34.0310    2.9554 C.3       8 UNK         0.0242 
     51 CB         32.0352   34.2735    1.8456 C.3       8 UNK        -0.2000 
     52 C          31.5586   33.1094    4.0411 C.2       8 UNK         0.4948 
     53 O          31.2286   31.9205    4.0690 O.2       8 UNK        -0.5275 
     54 N          32.4428   33.6495    4.8900 N.am      9 UNK        -0.4246 
     55 CA         33.1226   32.9441    5.9861 C.3       9 UNK         0.0261 
     56 CB         33.6445   33.9824    6.9976 C.3       9 UNK        -0.1959 
     57 C          34.2301   31.9776    5.5059 C.2       9 UNK         0.5033 
     58 O          35.3341   31.9750    6.0534 O.2       9 UNK        -0.5390 
     59 N          33.9133   31.1660    4.4917 N.am      10 UNK        -0.4215 
     60 CA         34.7869   30.1568    3.8885 C.3       10 UNK         0.0240 
     61 CB         34.3467   29.9515    2.4294 C.3       10 UNK        -0.1982 
     62 C          34.7803   28.8178    4.6504 C.2       10 UNK         0.4970 
     63 O          35.5664   27.9326    4.3127 O.2       10 UNK        -0.4916 
     64 N          33.8855   28.6812    5.6367 N.am      11 UNK        -0.4279 
     65 CA         33.6386   27.4612    6.4206 C.3       11 UNK         0.1003 
     66 C          34.7940   27.0343    7.3726 C.2       11 UNK         0.5709 
     67 N          35.7815   27.8797    7.6437 N.am      11 UNK        -0.7358 
     68 O          34.7933   25.9122    7.8732 O.2       11 UNK        -0.4999 
     69 C69        32.2931   27.5433    7.1948 C.3       12 UNK        -0.0954 
     70 S70        30.8968   28.1990    6.2130 S.3       12 UNK        -0.2268 
     71 C71        29.9973   26.6807    5.7502 C.3       12 UNK         0.0203 
     72 H72        31.0404   21.7321   -3.9147 H         1 UNK         0.0888 
     73 H73        29.7992   22.3527   -5.0051 H         1 UNK         0.0888 
     74 H74        31.1084   23.4074   -4.4650 H         1 UNK         0.0888 
     75 H75        30.2683   21.5300   -1.8263 H         1 UNK         0.3017 
     76 H76        28.9782   23.6697   -0.4166 H         1 UNK         0.0873 
     77 H77        29.4295   20.7617    0.4264 H         1 UNK         0.0745 
     78 H78        30.5711   22.0602    0.6370 H         1 UNK         0.0745 
     79 H79        30.9415   21.6215    2.9448 H         1 UNK         0.0705 
     80 H80        29.8440   21.8994    4.2675 H         1 UNK         0.0705 
     81 H81        29.4280   24.1288    5.1522 H         1 UNK         0.1334 
     82 H82        31.9522   27.3488    3.8469 H         1 UNK         0.1417 
     83 H83        32.0746   23.5770    1.8291 H         1 UNK         0.1562 
     84 H84        33.7290   25.2502    1.3114 H         1 UNK         0.0748 
     85 H85        33.9821   26.5554    2.4388 H         1 UNK         0.0748 
     86 H86        31.6896   25.1395   -0.1824 H         1 UNK         0.0940 
     87 H87        31.9917   26.2459   -1.4799 H         1 UNK         0.0940 
     88 H88        29.5849   25.7988   -1.1500 H         1 UNK         0.0703 
     89 H89        30.0440   26.6372    1.6124 H         1 UNK         0.3081 
     90 H90        28.3800   25.8666    3.1237 H         1 UNK         0.0719 
     91 H91        28.2292   28.3354    2.8665 H         1 UNK         0.0809 
     92 H92        26.8947   27.7853    3.8631 H         1 UNK         0.0809 
     93 H93        26.6170   28.2033    2.1727 H         1 UNK         0.0809 
     94 H94        25.8803   25.4284    1.6829 H         1 UNK         0.2990 
     95 H95        25.1668   22.7624    3.8762 H         1 UNK         0.0690 
     96 H96        22.7863   23.4308    3.4659 H         1 UNK         0.0788 
     97 H97        23.3091   25.0848    3.1440 H         1 UNK         0.0788 
     98 H98        23.5463   24.3821    4.7323 H         1 UNK         0.0788 
     99 H99        25.4461   22.2284    1.7659 H         1 UNK         0.2993 
    100 H100       24.8043   22.0105   -0.5056 H         1 UNK         0.0949 
    101 H101       23.3586   23.6130   -1.7862 H         1 UNK         0.0767 
    102 H102       24.7104   24.7298   -1.9436 H         1 UNK         0.0767 
    103 H103       24.7717   23.1522   -2.7251 H         1 UNK         0.0767 
    104 H104       26.8733   24.1546   -0.3768 H         1 UNK         0.3013 
    105 H105       29.6195   28.8279    0.6329 H         1 UNK         0.3121 
    106 H106       28.6144   30.3395   -1.5727 H         1 UNK         0.0774 
    107 H107       30.5083   32.0238   -1.5570 H         1 UNK         0.0815 
    108 H108       31.4394   30.9731   -0.4980 H         1 UNK         0.0815 
    109 H109       31.0698   30.4702   -2.1459 H         1 UNK         0.0815 
    110 H110       28.1039   32.5539   -0.7654 H         1 UNK         0.2987 
    111 H111       27.2798   32.5605    2.0577 H         1 UNK         0.0949 
    112 H112       25.6935   33.3067    0.2986 H         1 UNK         0.0806 
    113 H113       26.0808   34.6325    1.3813 H         1 UNK         0.0806 
    114 H114       26.8153   34.5669   -0.2150 H         1 UNK         0.0806 
    115 H115       29.7593   32.3961    2.4966 H         1 UNK         0.3010 
    116 H116       30.7166   34.9798    3.4198 H         1 UNK         0.0829 
    117 H117       31.6460   34.9380    1.0740 H         1 UNK         0.0813 
    118 H118       32.9385   34.7381    2.2427 H         1 UNK         0.0813 
    119 H119       32.3316   33.3408    1.3634 H         1 UNK         0.0813 
    120 H120       32.6916   34.6212    4.7686 H         1 UNK         0.3038 
    121 H121       32.3805   32.3306    6.5019 H         1 UNK         0.0769 
    122 H122       34.4067   34.6264    6.5572 H         1 UNK         0.0811 
    123 H123       34.0907   33.4953    7.8658 H         1 UNK         0.0811 
    124 H124       32.8392   34.6175    7.3674 H         1 UNK         0.0811 
    125 H125       32.9619   31.2324    4.1334 H         1 UNK         0.3204 
    126 H126       35.8143   30.5268    3.8895 H         1 UNK         0.0748 
    127 H127       34.9652   29.2046    1.9296 H         1 UNK         0.0771 
    128 H128       33.3115   29.6137    2.3673 H         1 UNK         0.0771 
    129 H129       34.4305   30.8752    1.8565 H         1 UNK         0.0771 
    130 H130       33.2731   29.4563    5.8383 H         1 UNK         0.2980 
    131 H131       33.5499   26.6464    5.7011 H         1 UNK         0.0545 
    132 H132       35.7921   28.8004    7.2345 H         1 UNK         0.3459 
    133 H133       36.5250   27.5904    8.2593 H         1 UNK         0.3459 
    134 H134       32.4019   28.1966    8.0626 H         1 UNK         0.0616 
    135 H135       32.0237   26.5625    7.5905 H         1 UNK         0.0616 
    136 H136       29.0022   26.9721    5.4123 H         1 UNK         0.0634 
    137 H137       29.8489   26.0764    6.6464 H         1 UNK         0.0634 
@<TRIPOS>BOND
     1    1    2 1    
     2    1   72 1    
     3    1   73 1    
     4    1   74 1    
     5    2    3 2    
     6    2    4 am   BACKBONE|DICT|INTERRES
     7    4    5 1    
     8    4   75 1    
     9    5    6 1    
    10    5   35 1    
    11    5   76 1    
    12    6    7 1    
    13    6   77 1    
    14    6   78 1    
    15    7    8 1    
    16    8    9 1    
    17    8   79 1    
    18    8   80 1    
    19    9   10 ar   
    20    9   14 ar   
    21   10   11 ar   
    22   10   81 1    
    23   11   12 ar   
    24   11   71 1    
    25   12   13 ar   
    26   12   82 1    
    27   13   14 ar   
    28   13   15 1    
    29   14   83 1    
    30   15   16 1    
    31   15   84 1    
    32   15   85 1    
    33   16   17 1    
    34   17   18 1    
    35   17   86 1    
    36   17   87 1    
    37   18   19 1    
    38   18   37 1    
    39   18   88 1    
    40   19   20 am   BACKBONE|DICT|INTERRES
    41   19   89 1    
    42   20   21 2    
    43   20   22 1    
    44   22   23 1    
    45   22   24 1    
    46   22   90 1    
    47   23   91 1    
    48   23   92 1    
    49   23   93 1    
    50   24   25 am   BACKBONE|DICT|INTERRES
    51   24   94 1    
    52   25   26 2    
    53   25   27 1    
    54   27   28 1    
    55   27   29 1    
    56   27   95 1    
    57   28   96 1    
    58   28   97 1    
    59   28   98 1    
    60   29   30 am   BACKBONE|DICT|INTERRES
    61   29   99 1    
    62   30   31 2    
    63   30   32 1    
    64   32   33 1    
    65   32   34 1    
    66   32  100 1    
    67   33  101 1    
    68   33  102 1    
    69   33  103 1    
    70   34   35 am   BACKBONE|DICT|INTERRES
    71   34  104 1    
    72   35   36 2    
    73   37   38 2    
    74   37   39 am   BACKBONE|DICT|INTERRES
    75   39   40 1    
    76   39  105 1    
    77   40   41 1    
    78   40   42 1    
    79   40  106 1    
    80   41  107 1    
    81   41  108 1    
    82   41  109 1    
    83   42   43 2    
    84   42   44 am   BACKBONE|DICT|INTERRES
    85   44   45 1    
    86   44  110 1    
    87   45   46 1    
    88   45   47 1    
    89   45  111 1    
    90   46  112 1    
    91   46  113 1    
    92   46  114 1    
    93   47   48 2    
    94   47   49 am   BACKBONE|DICT|INTERRES
    95   49   50 1    
    96   49  115 1    
    97   50   51 1    
    98   50   52 1    
    99   50  116 1    
   100   51  117 1    
   101   51  118 1    
   102   51  119 1    
   103   52   53 2    
   104   52   54 am   BACKBONE|DICT|INTERRES
   105   54   55 1    
   106   54  120 1    
   107   55   56 1    
   108   55   57 1    
   109   55  121 1    
   110   56  122 1    
   111   56  123 1    
   112   56  124 1    
   113   57   58 2    
   114   57   59 am   BACKBONE|DICT|INTERRES
   115   59   60 1    
   116   59  125 1    
   117   60   61 1    
   118   60   62 1    
   119   60  126 1    
   120   61  127 1    
   121   61  128 1    
   122   61  129 1    
   123   62   63 2    
   124   62   64 am   BACKBONE|DICT|INTERRES
   125   64   65 1    
   126   64  130 1    
   127   65   66 1    
   128   65   69 1    
   129   65  131 1    
   130   66   67 am   BACKBONE|DICT|INTERRES
   131   66   68 2    
   132   67  132 1    
   133   67  133 1    
   134   69   70 1    
   135   69  134 1    
   136   69  135 1    
   137   70   71 1    
   138   71  136 1    
   139   71  137 1    
@<TRIPOS>SUBSTRUCTURE
     1 UNK         1 GROUP             0       ****    0 ROOT    
