@<TRIPOS>MOLECULE
3R136
137   139    1
SMALL
USER_CHARGES


@<TRIPOS>ATOM
      1 CA         27.9600   20.6440    0.4562 C.3       0 UNK        -0.1979 
      2 C          28.8292   21.7930   -0.0313 C.2       0 UNK         0.4864 
      3 O          28.7606   22.8779    0.5414 O.2       0 UNK        -0.5359 
      4 N          29.6250   21.5512   -1.0848 N.am      1 UNK        -0.4318 
      5 CA         30.6025   22.4164   -1.7748 C.3       1 UNK         0.0824 
      6 C6         31.9346   22.6362   -1.0015 C.3       12 UNK        -0.0944 
      7 S7         31.8576   23.7861    0.4149 S.3       12 UNK        -0.2672 
      8 C8         32.0111   22.6284    1.8063 C.3       12 UNK         0.0333 
      9 C9         31.5368   23.2611    3.1040 C.ar      12 UNK        -0.0807 
     10 C10        32.3539   24.1668    3.7880 C.ar      12 UNK        -0.0894 
     11 C11        31.9284   24.7349    4.9927 C.ar      12 UNK        -0.0804 
     12 C12        30.6827   24.3765    5.5166 C.ar      12 UNK        -0.0824 
     13 C13        29.8484   23.4886    4.8320 C.ar      12 UNK        -0.0762 
     14 C14        30.2821   22.9315    3.6264 C.ar      12 UNK        -0.0782 
     15 C15        28.4764   23.1447    5.3986 C.3       12 UNK         0.0230 
     16 S16        27.0997   23.7375    4.3570 S.3       12 UNK        -0.2608 
     17 C17        27.5159   25.4947    4.0798 C.3       12 UNK        -0.0989 
     18 CA         27.4923   25.8298    2.5598 C.3       5 UNK         0.0716 
     19 N          26.1410   25.8468    1.9781 N.am      5 UNK        -0.4135 
     20 C          25.0774   26.5601    2.3855 C.2       4 UNK         0.5031 
     21 O          25.0829   27.3296    3.3490 O.2       4 UNK        -0.5229 
     22 CA         23.7648   26.3478    1.5994 C.3       4 UNK         0.0329 
     23 CB         22.6986   27.4280    1.8878 C.3       4 UNK        -0.2001 
     24 N          23.9736   26.1821    0.1567 N.am      4 UNK        -0.4303 
     25 C          24.4854   27.0807   -0.6963 C.2       3 UNK         0.5044 
     26 O          24.7906   28.2377   -0.4026 O.2       3 UNK        -0.5152 
     27 CA         24.7292   26.5756   -2.1288 C.3       3 UNK         0.0319 
     28 CB         24.1109   27.5234   -3.1711 C.3       3 UNK        -0.2001 
     29 N          26.1588   26.4163   -2.4048 N.am      3 UNK        -0.4354 
     30 C          26.9874   25.5981   -1.7418 C.2       2 UNK         0.4964 
     31 O          26.6353   24.8637   -0.8138 O.2       2 UNK        -0.5047 
     32 CA         28.4520   25.6145   -2.1928 C.3       2 UNK         0.0288 
     33 CB         29.2040   26.8272   -1.6164 C.3       2 UNK        -0.2113 
     34 N          29.1049   24.3877   -1.7498 N.am      2 UNK        -0.4145 
     35 C          30.0551   23.7192   -2.4067 C.2       1 UNK         0.5006 
     36 O          30.5052   24.0841   -3.4953 O.2       1 UNK        -0.5103 
     37 C          28.2951   27.1027    2.2199 C.2       5 UNK         0.5055 
     38 O          27.7381   28.1111    1.7802 O.2       5 UNK        -0.5220 
     39 N          29.6206   27.0295    2.4078 N.am      6 UNK        -0.4450 
     40 CA         30.5943   28.0704    2.0556 C.3       6 UNK         0.0367 
     41 CB         31.9766   27.4179    1.8891 C.3       6 UNK        -0.1929 
     42 C          30.6237   29.2623    3.0358 C.2       6 UNK         0.5070 
     43 O          31.7050   29.7193    3.4198 O.2       6 UNK        -0.5237 
     44 N          29.4401   29.7658    3.4055 N.am      7 UNK        -0.4739 
     45 CA         29.2377   30.9482    4.2418 C.3       7 UNK         0.0276 
     46 CB         27.7352   31.1291    4.5090 C.3       7 UNK        -0.1927 
     47 C          29.8347   32.1962    3.5723 C.2       7 UNK         0.5013 
     48 O          29.4822   32.4954    2.4298 O.2       7 UNK        -0.5193 
     49 N          30.7776   32.8472    4.2642 N.am      8 UNK        -0.4253 
     50 CA         31.6348   33.9636    3.8396 C.3       8 UNK         0.0242 
     51 CB         30.8117   35.1844    3.3823 C.3       8 UNK        -0.2000 
     52 C          32.7038   33.5817    2.7967 C.2       8 UNK         0.4948 
     53 O          33.7651   34.2062    2.7822 O.2       8 UNK        -0.5275 
     54 N          32.4305   32.5717    1.9600 N.am      9 UNK        -0.4246 
     55 CA         33.3461   32.0306    0.9554 C.3       9 UNK         0.0261 
     56 CB         32.5722   31.1160   -0.0077 C.3       9 UNK        -0.1959 
     57 C          34.5474   31.2915    1.5695 C.2       9 UNK         0.5033 
     58 O          35.6606   31.4467    1.0641 O.2       9 UNK        -0.5390 
     59 N          34.3128   30.5164    2.6376 N.am      10 UNK        -0.4215 
     60 CA         35.3542   29.7819    3.3635 C.3       10 UNK         0.0240 
     61 CB         35.5238   28.3723    2.7688 C.3       10 UNK        -0.1982 
     62 C          35.1037   29.6995    4.8766 C.2       10 UNK         0.4970 
     63 O          36.0761   29.5582    5.6200 O.2       10 UNK        -0.4916 
     64 N          33.8434   29.7732    5.3192 N.am      11 UNK        -0.4279 
     65 CA         33.4461   29.6235    6.7258 C.3       11 UNK         0.1003 
     66 C          32.2772   30.5709    7.1129 C.2       11 UNK         0.5709 
     67 N          31.6544   30.3785    8.2678 N.am      11 UNK        -0.7358 
     68 O          31.9497   31.5149    6.3980 O.2       11 UNK        -0.4999 
     69 C69        33.2338   28.1306    7.1070 C.3       12 UNK        -0.0954 
     70 S70        31.9719   27.2860    6.0928 S.3       12 UNK        -0.2268 
     71 C71        32.8213   25.7138    5.7429 C.3       12 UNK         0.0203 
     72 H72        26.9077   20.9196    0.3915 H         1 UNK         0.0888 
     73 H73        28.1111   19.7371   -0.1289 H         1 UNK         0.0888 
     74 H74        28.1888   20.4188    1.4975 H         1 UNK         0.0888 
     75 H75        29.5642   20.6283   -1.4922 H         1 UNK         0.3017 
     76 H76        30.8767   21.8099   -2.6399 H         1 UNK         0.0873 
     77 H77        32.3279   21.6745   -0.6692 H         1 UNK         0.0745 
     78 H78        32.6890   23.0266   -1.6871 H         1 UNK         0.0745 
     79 H79        33.0512   22.3136    1.9020 H         1 UNK         0.0705 
     80 H80        31.4330   21.7271    1.5973 H         1 UNK         0.0705 
     81 H81        33.3205   24.4267    3.3781 H         1 UNK         0.1334 
     82 H82        30.3561   24.8088    6.4528 H         1 UNK         0.1417 
     83 H83        29.6359   22.2488    3.0913 H         1 UNK         0.1562 
     84 H84        28.3570   23.5604    6.4004 H         1 UNK         0.0748 
     85 H85        28.3953   22.0624    5.5072 H         1 UNK         0.0748 
     86 H86        28.4901   25.7120    4.5149 H         1 UNK         0.0940 
     87 H87        26.8231   26.1139    4.6484 H         1 UNK         0.0940 
     88 H88        28.0117   25.0267    2.0335 H         1 UNK         0.0703 
     89 H89        26.0529   25.3105    1.1212 H         1 UNK         0.3081 
     90 H90        23.3627   25.3973    1.9534 H         1 UNK         0.0719 
     91 H91        23.0528   28.4266    1.6303 H         1 UNK         0.0809 
     92 H92        21.7819   27.2416    1.3286 H         1 UNK         0.0809 
     93 H93        22.4338   27.4423    2.9457 H         1 UNK         0.0809 
     94 H94        23.7903   25.2538   -0.1999 H         1 UNK         0.2990 
     95 H95        24.2572   25.5975   -2.2452 H         1 UNK         0.0690 
     96 H96        24.2181   27.1280   -4.1814 H         1 UNK         0.0788 
     97 H97        24.5733   28.5111   -3.1458 H         1 UNK         0.0788 
     98 H98        23.0440   27.6591   -2.9887 H         1 UNK         0.0788 
     99 H99        26.5404   27.0076   -3.1290 H         1 UNK         0.2993 
    100 H100       28.4655   25.6624   -3.2840 H         1 UNK         0.0949 
    101 H101       29.2537   26.7824   -0.5292 H         1 UNK         0.0767 
    102 H102       30.2264   26.8725   -1.9921 H         1 UNK         0.0767 
    103 H103       28.7163   27.7649   -1.8852 H         1 UNK         0.0767 
    104 H104       28.7742   24.0008   -0.8641 H         1 UNK         0.3013 
    105 H105       30.0086   26.1774    2.7893 H         1 UNK         0.3121 
    106 H106       30.3110   28.4813    1.0845 H         1 UNK         0.0774 
    107 H107       32.7159   28.1415    1.5460 H         1 UNK         0.0815 
    108 H108       32.3353   26.9981    2.8291 H         1 UNK         0.0815 
    109 H109       31.9508   26.6196    1.1490 H         1 UNK         0.0815 
    110 H110       28.6143   29.3583    2.9759 H         1 UNK         0.2987 
    111 H111       29.7364   30.7695    5.1957 H         1 UNK         0.0949 
    112 H112       27.1768   31.2807    3.5841 H         1 UNK         0.0806 
    113 H113       27.3144   30.2597    5.0147 H         1 UNK         0.0806 
    114 H114       27.5542   31.9955    5.1465 H         1 UNK         0.0806 
    115 H115       31.0638   32.4309    5.1510 H         1 UNK         0.3010 
    116 H116       32.1811   34.2574    4.7375 H         1 UNK         0.0829 
    117 H117       30.0832   35.4779    4.1380 H         1 UNK         0.0813 
    118 H118       31.4606   36.0433    3.2064 H         1 UNK         0.0813 
    119 H119       30.2750   34.9931    2.4529 H         1 UNK         0.0813 
    120 H120       31.5082   32.1569    2.0199 H         1 UNK         0.3038 
    121 H121       33.7385   32.8709    0.3785 H         1 UNK         0.0769 
    122 H122       33.2335   30.7052   -0.7720 H         1 UNK         0.0811 
    123 H123       31.7822   31.6623   -0.5235 H         1 UNK         0.0811 
    124 H124       32.1128   30.2759    0.5114 H         1 UNK         0.0811 
    125 H125       33.3531   30.4044    2.9583 H         1 UNK         0.3204 
    126 H126       36.3014   30.3134    3.2477 H         1 UNK         0.0748 
    127 H127       36.3709   27.8587    3.2254 H         1 UNK         0.0771 
    128 H128       34.6433   27.7545    2.9416 H         1 UNK         0.0771 
    129 H129       35.7080   28.4087    1.6950 H         1 UNK         0.0771 
    130 H130       33.0648   29.8612    4.6715 H         1 UNK         0.2980 
    131 H131       34.2685   29.9939    7.3401 H         1 UNK         0.0545 
    132 H132       30.9098   31.0041    8.5310 H         1 UNK         0.3459 
    133 H133       31.9091   29.6179    8.8772 H         1 UNK         0.3459 
    134 H134       32.9666   28.0216    8.1587 H         1 UNK         0.0616 
    135 H135       34.1834   27.6046    6.9993 H         1 UNK         0.0616 
    136 H136       33.7288   25.9253    5.1749 H         1 UNK         0.0634 
    137 H137       33.1348   25.2565    6.6823 H         1 UNK         0.0634 
@<TRIPOS>BOND
     1    1    2 1    
     2    1   72 1    
     3    1   73 1    
     4    1   74 1    
     5    2    3 2    
     6    2    4 am   BACKBONE|DICT|INTERRES
     7    4    5 1    
     8    4   75 1    
     9    5    6 1    
    10    5   35 1    
    11    5   76 1    
    12    6    7 1    
    13    6   77 1    
    14    6   78 1    
    15    7    8 1    
    16    8    9 1    
    17    8   79 1    
    18    8   80 1    
    19    9   10 ar   
    20    9   14 ar   
    21   10   11 ar   
    22   10   81 1    
    23   11   12 ar   
    24   11   71 1    
    25   12   13 ar   
    26   12   82 1    
    27   13   14 ar   
    28   13   15 1    
    29   14   83 1    
    30   15   16 1    
    31   15   84 1    
    32   15   85 1    
    33   16   17 1    
    34   17   18 1    
    35   17   86 1    
    36   17   87 1    
    37   18   19 1    
    38   18   37 1    
    39   18   88 1    
    40   19   20 am   BACKBONE|DICT|INTERRES
    41   19   89 1    
    42   20   21 2    
    43   20   22 1    
    44   22   23 1    
    45   22   24 1    
    46   22   90 1    
    47   23   91 1    
    48   23   92 1    
    49   23   93 1    
    50   24   25 am   BACKBONE|DICT|INTERRES
    51   24   94 1    
    52   25   26 2    
    53   25   27 1    
    54   27   28 1    
    55   27   29 1    
    56   27   95 1    
    57   28   96 1    
    58   28   97 1    
    59   28   98 1    
    60   29   30 am   BACKBONE|DICT|INTERRES
    61   29   99 1    
    62   30   31 2    
    63   30   32 1    
    64   32   33 1    
    65   32   34 1    
    66   32  100 1    
    67   33  101 1    
    68   33  102 1    
    69   33  103 1    
    70   34   35 am   BACKBONE|DICT|INTERRES
    71   34  104 1    
    72   35   36 2    
    73   37   38 2    
    74   37   39 am   BACKBONE|DICT|INTERRES
    75   39   40 1    
    76   39  105 1    
    77   40   41 1    
    78   40   42 1    
    79   40  106 1    
    80   41  107 1    
    81   41  108 1    
    82   41  109 1    
    83   42   43 2    
    84   42   44 am   BACKBONE|DICT|INTERRES
    85   44   45 1    
    86   44  110 1    
    87   45   46 1    
    88   45   47 1    
    89   45  111 1    
    90   46  112 1    
    91   46  113 1    
    92   46  114 1    
    93   47   48 2    
    94   47   49 am   BACKBONE|DICT|INTERRES
    95   49   50 1    
    96   49  115 1    
    97   50   51 1    
    98   50   52 1    
    99   50  116 1    
   100   51  117 1    
   101   51  118 1    
   102   51  119 1    
   103   52   53 2    
   104   52   54 am   BACKBONE|DICT|INTERRES
   105   54   55 1    
   106   54  120 1    
   107   55   56 1    
   108   55   57 1    
   109   55  121 1    
   110   56  122 1    
   111   56  123 1    
   112   56  124 1    
   113   57   58 2    
   114   57   59 am   BACKBONE|DICT|INTERRES
   115   59   60 1    
   116   59  125 1    
   117   60   61 1    
   118   60   62 1    
   119   60  126 1    
   120   61  127 1    
   121   61  128 1    
   122   61  129 1    
   123   62   63 2    
   124   62   64 am   BACKBONE|DICT|INTERRES
   125   64   65 1    
   126   64  130 1    
   127   65   66 1    
   128   65   69 1    
   129   65  131 1    
   130   66   67 am   BACKBONE|DICT|INTERRES
   131   66   68 2    
   132   67  132 1    
   133   67  133 1    
   134   69   70 1    
   135   69  134 1    
   136   69  135 1    
   137   70   71 1    
   138   71  136 1    
   139   71  137 1    
@<TRIPOS>SUBSTRUCTURE
     1 UNK         1 GROUP             0       ****    0 ROOT    
