@<TRIPOS>MOLECULE
3R136
137   139    1
SMALL
USER_CHARGES


@<TRIPOS>ATOM
      1 CA         32.9306   25.8889   -1.3751 C.3       0 UNK        -0.1979 
      2 C          31.4222   25.6952   -1.4097 C.2       0 UNK         0.4864 
      3 O          30.7244   26.4274   -2.1136 O.2       0 UNK        -0.5359 
      4 N          30.9088   24.7121   -0.6587 N.am      1 UNK        -0.4318 
      5 CA         29.4808   24.3993   -0.5321 C.3       1 UNK         0.0824 
      6 C6         29.1596   23.6663    0.7941 C.3       12 UNK        -0.0944 
      7 S7         29.3577   24.8097    2.1907 S.3       12 UNK        -0.2672 
      8 C8         29.4444   23.6853    3.6147 C.3       12 UNK         0.0333 
      9 C9         29.3310   24.5109    4.8837 C.ar      12 UNK        -0.0807 
     10 C10        30.4671   25.0980    5.4462 C.ar      12 UNK        -0.0894 
     11 C11        30.3442   25.9787    6.5238 C.ar      12 UNK        -0.0804 
     12 C12        29.0750   26.2819    7.0268 C.ar      12 UNK        -0.0824 
     13 C13        27.9307   25.6965    6.4756 C.ar      12 UNK        -0.0762 
     14 C14        28.0736   24.7723    5.4346 C.ar      12 UNK        -0.0782 
     15 C15        26.5526   26.0901    7.0044 C.3       12 UNK         0.0230 
     16 S16        25.2773   26.2893    5.7076 S.3       12 UNK        -0.2608 
     17 C17        25.9536   27.6172    4.6414 C.3       12 UNK        -0.0989 
     18 CA         26.5889   27.0779    3.3261 C.3       5 UNK         0.0716 
     19 N          25.7400   26.1283    2.5965 N.am      5 UNK        -0.4135 
     20 C          24.5654   26.3843    2.0071 C.2       4 UNK         0.5031 
     21 O          24.0310   27.4942    1.9589 O.2       4 UNK        -0.5229 
     22 CA         23.8820   25.1757    1.3402 C.3       4 UNK         0.0329 
     23 CB         22.4064   25.0717    1.7634 C.3       4 UNK        -0.2001 
     24 N          23.9636   25.1935   -0.1240 N.am      4 UNK        -0.4303 
     25 C          25.0827   25.3101   -0.8509 C.2       3 UNK         0.5044 
     26 O          26.2088   25.4844   -0.3696 O.2       3 UNK        -0.5152 
     27 CA         24.9165   25.1966   -2.3749 C.3       3 UNK         0.0319 
     28 CB         24.2399   26.4420   -2.9732 C.3       3 UNK        -0.2001 
     29 N          26.2471   25.0423   -2.9466 N.am      3 UNK        -0.4354 
     30 C          26.6240   24.1867   -3.9030 C.2       2 UNK         0.4964 
     31 O          25.8415   23.5237   -4.5843 O.2       2 UNK        -0.5047 
     32 CA         28.1444   24.0258   -4.1109 C.3       2 UNK         0.0288 
     33 CB         28.6245   24.8906   -5.2874 C.3       2 UNK        -0.2113 
     34 N          28.9063   24.3834   -2.9088 N.am      2 UNK        -0.4145 
     35 C          28.9306   23.6691   -1.7748 C.2       1 UNK         0.5006 
     36 O          28.5101   22.5135   -1.6881 O.2       1 UNK        -0.5103 
     37 C          27.1805   28.1815    2.4207 C.2       5 UNK         0.5055 
     38 O          27.4982   29.2677    2.9090 O.2       5 UNK        -0.5220 
     39 N          27.3635   27.8774    1.1246 N.am      6 UNK        -0.4450 
     40 CA         27.9421   28.7848    0.1265 C.3       6 UNK         0.0367 
     41 CB         27.6270   28.2631   -1.2843 C.3       6 UNK        -0.1929 
     42 C          29.4543   29.0352    0.2891 C.2       6 UNK         0.5070 
     43 O          29.9756   29.9364   -0.3683 O.2       6 UNK        -0.5237 
     44 N          30.1301   28.2593    1.1520 N.am      7 UNK        -0.4739 
     45 CA         31.5465   28.4138    1.5015 C.3       7 UNK         0.0276 
     46 CB         31.9593   27.2938    2.4711 C.3       7 UNK        -0.1927 
     47 C          31.8917   29.7962    2.0839 C.2       7 UNK         0.5013 
     48 O          32.9341   30.3492    1.7290 O.2       7 UNK        -0.5193 
     49 N          30.9990   30.3339    2.9314 N.am      8 UNK        -0.4253 
     50 CA         31.0377   31.6731    3.5324 C.3       8 UNK         0.0242 
     51 CB         30.5982   32.7239    2.4882 C.3       8 UNK        -0.2000 
     52 C          32.3931   31.9871    4.1975 C.2       8 UNK         0.4948 
     53 O          32.6843   31.4389    5.2596 O.2       8 UNK        -0.5275 
     54 N          33.2136   32.8286    3.5525 N.am      9 UNK        -0.4246 
     55 CA         34.5642   33.1946    3.9883 C.3       9 UNK         0.0261 
     56 CB         35.1192   34.2840    3.0568 C.3       9 UNK        -0.1959 
     57 C          35.5449   32.0094    4.0726 C.2       9 UNK         0.5033 
     58 O          36.4744   32.0636    4.8801 O.2       9 UNK        -0.5390 
     59 N          35.3181   30.9485    3.2808 N.am      10 UNK        -0.4215 
     60 CA         36.1231   29.7220    3.3000 C.3       10 UNK         0.0240 
     61 CB         35.8465   28.8911    2.0361 C.3       10 UNK        -0.1982 
     62 C          35.9398   28.8765    4.5758 C.2       10 UNK         0.4970 
     63 O          36.7550   27.9836    4.8113 O.2       10 UNK        -0.4916 
     64 N          34.9152   29.1749    5.3891 N.am      11 UNK        -0.4279 
     65 CA         34.7483   28.6205    6.7417 C.3       11 UNK         0.1003 
     66 C          35.7982   29.1388    7.7705 C.2       11 UNK         0.5709 
     67 N          36.5429   30.2051    7.4939 N.am      11 UNK        -0.7358 
     68 O          35.9438   28.5542    8.8414 O.2       11 UNK        -0.4999 
     69 C69        33.3124   28.8332    7.2872 C.3       12 UNK        -0.0954 
     70 S70        32.0155   28.1400    6.2090 S.3       12 UNK        -0.2268 
     71 C71        31.5781   26.6320    7.1221 C.3       12 UNK         0.0203 
     72 H72        33.1717   26.9379   -1.2067 H         1 UNK         0.0888 
     73 H73        33.3975   25.3038   -0.5831 H         1 UNK         0.0888 
     74 H74        33.3680   25.5884   -2.3267 H         1 UNK         0.0888 
     75 H75        31.5287   24.1272   -0.1169 H         1 UNK         0.3017 
     76 H76        28.9404   25.3471   -0.4979 H         1 UNK         0.0873 
     77 H77        29.7960   22.7897    0.9275 H         1 UNK         0.0745 
     78 H78        28.1259   23.3144    0.8104 H         1 UNK         0.0745 
     79 H79        28.6387   22.9515    3.5599 H         1 UNK         0.0705 
     80 H80        30.3842   23.1316    3.5944 H         1 UNK         0.0705 
     81 H81        31.4417   24.9038    5.0192 H         1 UNK         0.1334 
     82 H82        28.9797   26.9895    7.8393 H         1 UNK         0.1417 
     83 H83        27.1957   24.3181    4.9963 H         1 UNK         0.1562 
     84 H84        26.6115   27.0211    7.5706 H         1 UNK         0.0748 
     85 H85        26.2193   25.3241    7.7056 H         1 UNK         0.0748 
     86 H86        26.6858   28.1910    5.2128 H         1 UNK         0.0940 
     87 H87        25.1428   28.3099    4.4096 H         1 UNK         0.0940 
     88 H88        27.4668   26.5086    3.6159 H         1 UNK         0.0703 
     89 H89        26.1072   25.1902    2.5284 H         1 UNK         0.3081 
     90 H90        24.3843   24.2665    1.6775 H         1 UNK         0.0719 
     91 H91        21.9470   24.1574    1.3875 H         1 UNK         0.0809 
     92 H92        21.8210   25.9171    1.3992 H         1 UNK         0.0809 
     93 H93        22.3133   25.0561    2.8503 H         1 UNK         0.0809 
     94 H94        23.0887   25.0802   -0.6151 H         1 UNK         0.2990 
     95 H95        24.3140   24.3108   -2.5871 H         1 UNK         0.0690 
     96 H96        24.1413   26.3524   -4.0552 H         1 UNK         0.0788 
     97 H97        24.8036   27.3514   -2.7665 H         1 UNK         0.0788 
     98 H98        23.2365   26.5803   -2.5691 H         1 UNK         0.0788 
     99 H99        26.9694   25.4831   -2.3940 H         1 UNK         0.2993 
    100 H100       28.3383   22.9770   -4.3460 H         1 UNK         0.0949 
    101 H101       29.6876   24.7432   -5.4793 H         1 UNK         0.0767 
    102 H102       28.0912   24.6333   -6.2038 H         1 UNK         0.0767 
    103 H103       28.4611   25.9530   -5.1010 H         1 UNK         0.0767 
    104 H104       29.3673   25.2903   -2.8963 H         1 UNK         0.3013 
    105 H105       27.0558   26.9698    0.7880 H         1 UNK         0.3121 
    106 H106       27.4511   29.7538    0.2391 H         1 UNK         0.0774 
    107 H107       27.9897   28.9534   -2.0471 H         1 UNK         0.0815 
    108 H108       28.0966   27.2991   -1.4736 H         1 UNK         0.0815 
    109 H109       26.5536   28.1556   -1.4317 H         1 UNK         0.0815 
    110 H110       29.6245   27.5226    1.6227 H         1 UNK         0.2987 
    111 H111       32.1253   28.3045    0.5826 H         1 UNK         0.0949 
    112 H112       31.2927   27.2402    3.3326 H         1 UNK         0.0806 
    113 H113       31.9473   26.3221    1.9781 H         1 UNK         0.0806 
    114 H114       32.9676   27.4447    2.8567 H         1 UNK         0.0806 
    115 H115       30.1840   29.7801    3.1578 H         1 UNK         0.3010 
    116 H116       30.2989   31.6750    4.3353 H         1 UNK         0.0829 
    117 H117       29.5784   32.5322    2.1537 H         1 UNK         0.0813 
    118 H118       30.6110   33.7310    2.9077 H         1 UNK         0.0813 
    119 H119       31.2343   32.7192    1.6021 H         1 UNK         0.0813 
    120 H120       32.9046   33.2037    2.6673 H         1 UNK         0.3038 
    121 H121       34.4800   33.6142    4.9930 H         1 UNK         0.0769 
    122 H122       36.1151   34.5976    3.3733 H         1 UNK         0.0811 
    123 H123       34.4864   35.1717    3.0610 H         1 UNK         0.0811 
    124 H124       35.2005   33.9322    2.0275 H         1 UNK         0.0811 
    125 H125       34.5012   30.9463    2.6725 H         1 UNK         0.3204 
    126 H126       37.1733   30.0202    3.2718 H         1 UNK         0.0748 
    127 H127       36.5076   28.0249    1.9867 H         1 UNK         0.0771 
    128 H128       34.8246   28.5181    2.0096 H         1 UNK         0.0771 
    129 H129       36.0126   29.4763    1.1315 H         1 UNK         0.0771 
    130 H130       34.2732   29.9175    5.1394 H         1 UNK         0.2980 
    131 H131       34.9079   27.5430    6.6693 H         1 UNK         0.0545 
    132 H132       36.4389   30.7038    6.6196 H         1 UNK         0.3459 
    133 H133       37.2180   30.5203    8.1722 H         1 UNK         0.3459 
    134 H134       33.1101   29.8985    7.4091 H         1 UNK         0.0616 
    135 H135       33.2134   28.3983    8.2834 H         1 UNK         0.0616 
    136 H136       32.4211   25.9396    7.1031 H         1 UNK         0.0634 
    137 H137       31.3971   26.8758    8.1701 H         1 UNK         0.0634 
@<TRIPOS>BOND
     1    1    2 1    
     2    1   72 1    
     3    1   73 1    
     4    1   74 1    
     5    2    3 2    
     6    2    4 am   BACKBONE|DICT|INTERRES
     7    4    5 1    
     8    4   75 1    
     9    5    6 1    
    10    5   35 1    
    11    5   76 1    
    12    6    7 1    
    13    6   77 1    
    14    6   78 1    
    15    7    8 1    
    16    8    9 1    
    17    8   79 1    
    18    8   80 1    
    19    9   10 ar   
    20    9   14 ar   
    21   10   11 ar   
    22   10   81 1    
    23   11   12 ar   
    24   11   71 1    
    25   12   13 ar   
    26   12   82 1    
    27   13   14 ar   
    28   13   15 1    
    29   14   83 1    
    30   15   16 1    
    31   15   84 1    
    32   15   85 1    
    33   16   17 1    
    34   17   18 1    
    35   17   86 1    
    36   17   87 1    
    37   18   19 1    
    38   18   37 1    
    39   18   88 1    
    40   19   20 am   BACKBONE|DICT|INTERRES
    41   19   89 1    
    42   20   21 2    
    43   20   22 1    
    44   22   23 1    
    45   22   24 1    
    46   22   90 1    
    47   23   91 1    
    48   23   92 1    
    49   23   93 1    
    50   24   25 am   BACKBONE|DICT|INTERRES
    51   24   94 1    
    52   25   26 2    
    53   25   27 1    
    54   27   28 1    
    55   27   29 1    
    56   27   95 1    
    57   28   96 1    
    58   28   97 1    
    59   28   98 1    
    60   29   30 am   BACKBONE|DICT|INTERRES
    61   29   99 1    
    62   30   31 2    
    63   30   32 1    
    64   32   33 1    
    65   32   34 1    
    66   32  100 1    
    67   33  101 1    
    68   33  102 1    
    69   33  103 1    
    70   34   35 am   BACKBONE|DICT|INTERRES
    71   34  104 1    
    72   35   36 2    
    73   37   38 2    
    74   37   39 am   BACKBONE|DICT|INTERRES
    75   39   40 1    
    76   39  105 1    
    77   40   41 1    
    78   40   42 1    
    79   40  106 1    
    80   41  107 1    
    81   41  108 1    
    82   41  109 1    
    83   42   43 2    
    84   42   44 am   BACKBONE|DICT|INTERRES
    85   44   45 1    
    86   44  110 1    
    87   45   46 1    
    88   45   47 1    
    89   45  111 1    
    90   46  112 1    
    91   46  113 1    
    92   46  114 1    
    93   47   48 2    
    94   47   49 am   BACKBONE|DICT|INTERRES
    95   49   50 1    
    96   49  115 1    
    97   50   51 1    
    98   50   52 1    
    99   50  116 1    
   100   51  117 1    
   101   51  118 1    
   102   51  119 1    
   103   52   53 2    
   104   52   54 am   BACKBONE|DICT|INTERRES
   105   54   55 1    
   106   54  120 1    
   107   55   56 1    
   108   55   57 1    
   109   55  121 1    
   110   56  122 1    
   111   56  123 1    
   112   56  124 1    
   113   57   58 2    
   114   57   59 am   BACKBONE|DICT|INTERRES
   115   59   60 1    
   116   59  125 1    
   117   60   61 1    
   118   60   62 1    
   119   60  126 1    
   120   61  127 1    
   121   61  128 1    
   122   61  129 1    
   123   62   63 2    
   124   62   64 am   BACKBONE|DICT|INTERRES
   125   64   65 1    
   126   64  130 1    
   127   65   66 1    
   128   65   69 1    
   129   65  131 1    
   130   66   67 am   BACKBONE|DICT|INTERRES
   131   66   68 2    
   132   67  132 1    
   133   67  133 1    
   134   69   70 1    
   135   69  134 1    
   136   69  135 1    
   137   70   71 1    
   138   71  136 1    
   139   71  137 1    
@<TRIPOS>SUBSTRUCTURE
     1 UNK         1 GROUP             0       ****    0 ROOT    
