@<TRIPOS>MOLECULE
3R136
137   139    1
SMALL
USER_CHARGES


@<TRIPOS>ATOM
      1 CA         26.1619   17.9398    3.2467 C.3       0 UNK        -0.1979 
      2 C          26.6334   19.0581    2.3296 C.2       0 UNK         0.4864 
      3 O          26.1965   19.1341    1.1795 O.2       0 UNK        -0.5359 
      4 N          27.5122   19.9386    2.8277 N.am      1 UNK        -0.4318 
      5 CA         28.0831   21.0829    2.1051 C.3       1 UNK         0.0824 
      6 C6         29.4675   21.4692    2.6935 C.3       12 UNK        -0.0944 
      7 S7         30.5956   22.2091    1.4635 S.3       12 UNK        -0.2672 
      8 C8         30.4614   23.9777    1.8659 C.3       12 UNK         0.0333 
      9 C9         31.6911   24.7467    1.4093 C.ar      12 UNK        -0.0807 
     10 C10        32.6888   25.0805    2.3289 C.ar      12 UNK        -0.0894 
     11 C11        33.8158   25.8018    1.9259 C.ar      12 UNK        -0.0804 
     12 C12        33.9405   26.1935    0.5882 C.ar      12 UNK        -0.0824 
     13 C13        32.9515   25.8589   -0.3446 C.ar      12 UNK        -0.0762 
     14 C14        31.8308   25.1321    0.0731 C.ar      12 UNK        -0.0782 
     15 C15        33.1116   26.2475   -1.8102 C.3       12 UNK         0.0230 
     16 S16        32.6730   27.9867   -2.1387 S.3       12 UNK        -0.2608 
     17 C17        30.8581   27.9687   -1.9190 C.3       12 UNK        -0.0989 
     18 CA         30.2490   29.3133   -1.4431 C.3       5 UNK         0.0716 
     19 N          28.7877   29.1998   -1.3861 N.am      5 UNK        -0.4135 
     20 C          27.9031   30.0770   -0.8872 C.2       4 UNK         0.5031 
     21 O          28.2030   31.1794   -0.4237 O.2       4 UNK        -0.5229 
     22 CA         26.4202   29.6546   -0.9066 C.3       4 UNK         0.0329 
     23 CB         25.6346   30.5032   -1.9199 C.3       4 UNK        -0.2001 
     24 N          26.2244   28.2328   -1.2191 N.am      4 UNK        -0.4303 
     25 C          26.3943   27.2289   -0.3484 C.2       3 UNK         0.5044 
     26 O          26.6816   27.3831    0.8404 O.2       3 UNK        -0.5152 
     27 CA         26.2693   25.8139   -0.9212 C.3       3 UNK         0.0319 
     28 CB         27.6068   25.3510   -1.5297 C.3       3 UNK        -0.2001 
     29 N          25.8777   24.8985    0.1457 N.am      3 UNK        -0.4354 
     30 C          25.1323   23.8015   -0.0176 C.2       2 UNK         0.4964 
     31 O          24.7162   23.4104   -1.1103 O.2       2 UNK        -0.5047 
     32 CA         24.8368   22.9818    1.2475 C.3       2 UNK         0.0288 
     33 CB         23.4919   22.2365    1.1603 C.3       2 UNK        -0.2113 
     34 N          25.9043   22.0073    1.4558 N.am      2 UNK        -0.4145 
     35 C          27.0787   22.2598    2.0459 C.2       1 UNK         0.5006 
     36 O          27.3545   23.3496    2.5516 O.2       1 UNK        -0.5103 
     37 C          30.8472   29.7630   -0.0936 C.2       5 UNK         0.5055 
     38 O          30.4437   29.2436    0.9488 O.2       5 UNK        -0.5220 
     39 N          31.7897   30.7162   -0.1544 N.am      6 UNK        -0.4450 
     40 CA         32.5221   31.3006    0.9748 C.3       6 UNK         0.0367 
     41 CB         33.4914   30.2614    1.5711 C.3       6 UNK        -0.1929 
     42 C          31.5886   31.9209    2.0317 C.2       6 UNK         0.5070 
     43 O          31.7475   31.6544    3.2227 O.2       6 UNK        -0.5237 
     44 N          30.6112   32.7124    1.5620 N.am      7 UNK        -0.4739 
     45 CA         29.5644   33.3824    2.3471 C.3       7 UNK         0.0276 
     46 CB         30.1690   34.5227    3.1943 C.3       7 UNK        -0.1927 
     47 C          28.7329   32.3872    3.1805 C.2       7 UNK         0.5013 
     48 O          28.5655   32.5771    4.3866 O.2       7 UNK        -0.5193 
     49 N          28.2547   31.3324    2.5048 N.am      8 UNK        -0.4253 
     50 CA         27.5487   30.1710    3.0547 C.3       8 UNK         0.0242 
     51 CB         26.1711   30.5718    3.6245 C.3       8 UNK        -0.2000 
     52 C          28.4191   29.3762    4.0476 C.2       8 UNK         0.4948 
     53 O          28.0103   29.1486    5.1883 O.2       8 UNK        -0.5275 
     54 N          29.6017   28.9619    3.5715 N.am      9 UNK        -0.4246 
     55 CA         30.5927   28.1151    4.2394 C.3       9 UNK         0.0261 
     56 CB         30.0268   26.6966    4.4586 C.3       9 UNK        -0.1959 
     57 C          31.1843   28.7274    5.5234 C.2       9 UNK         0.5033 
     58 O          31.4417   27.9995    6.4855 O.2       9 UNK        -0.5390 
     59 N          31.4531   30.0403    5.5185 N.am      10 UNK        -0.4215 
     60 CA         32.1308   30.7601    6.6027 C.3       10 UNK         0.0240 
     61 CB         31.6515   32.2237    6.6092 C.3       10 UNK        -0.1982 
     62 C          33.6618   30.6317    6.4636 C.2       10 UNK         0.4970 
     63 O          34.3719   31.6383    6.4247 O.2       10 UNK        -0.4916 
     64 N          34.1345   29.3858    6.3534 N.am      11 UNK        -0.4279 
     65 CA         35.5210   29.0195    6.0227 C.3       11 UNK         0.1003 
     66 C          36.4911   29.0007    7.2384 C.2       11 UNK         0.5709 
     67 N          36.0263   29.1991    8.4665 N.am      11 UNK        -0.7358 
     68 O          37.6930   28.8140    7.0630 O.2       11 UNK        -0.4999 
     69 C69        35.5759   27.6865    5.2258 C.3       12 UNK        -0.0954 
     70 S70        34.4926   27.7247    3.7602 S.3       12 UNK        -0.2268 
     71 C71        34.8887   26.1539    2.9458 C.3       12 UNK         0.0203 
     72 H72        26.4030   16.9708    2.8104 H         1 UNK         0.0888 
     73 H73        26.6287   17.9943    4.2300 H         1 UNK         0.0888 
     74 H74        25.0818   17.9947    3.3802 H         1 UNK         0.0888 
     75 H75        27.8053   19.8448    3.7901 H         1 UNK         0.3017 
     76 H76        28.2442   20.7634    1.0727 H         1 UNK         0.0873 
     77 H77        29.9777   20.5700    3.0433 H         1 UNK         0.0745 
     78 H78        29.3763   22.1012    3.5787 H         1 UNK         0.0745 
     79 H79        29.5680   24.3922    1.3967 H         1 UNK         0.0705 
     80 H80        30.3286   24.0982    2.9413 H         1 UNK         0.0705 
     81 H81        32.5878   24.7824    3.3635 H         1 UNK         0.1334 
     82 H82        34.8082   26.7562    0.2715 H         1 UNK         0.1417 
     83 H83        31.0664   24.8585   -0.6413 H         1 UNK         0.1562 
     84 H84        32.5105   25.5985   -2.4492 H         1 UNK         0.0748 
     85 H85        34.1480   26.0879   -2.1117 H         1 UNK         0.0748 
     86 H86        30.5851   27.1822   -1.2156 H         1 UNK         0.0940 
     87 H87        30.4192   27.6796   -2.8754 H         1 UNK         0.0940 
     88 H88        30.4700   30.0773   -2.1909 H         1 UNK         0.0703 
     89 H89        28.4102   28.3303   -1.7259 H         1 UNK         0.3081 
     90 H90        26.0141   29.8529    0.0877 H         1 UNK         0.0719 
     91 H91        25.9944   30.3547   -2.9388 H         1 UNK         0.0809 
     92 H92        24.5715   30.2627   -1.8995 H         1 UNK         0.0809 
     93 H93        25.7273   31.5666   -1.6940 H         1 UNK         0.0809 
     94 H94        25.9731   28.0123   -2.1731 H         1 UNK         0.2990 
     95 H95        25.4988   25.8243   -1.6956 H         1 UNK         0.0690 
     96 H96        27.9139   25.9982   -2.3518 H         1 UNK         0.0788 
     97 H97        27.5303   24.3397   -1.9299 H         1 UNK         0.0788 
     98 H98        28.4076   25.3552   -0.7888 H         1 UNK         0.0788 
     99 H99        26.1869   25.1687    1.0726 H         1 UNK         0.2993 
    100 H100       24.7884   23.6621    2.1011 H         1 UNK         0.0949 
    101 H101       23.2717   21.7107    2.0896 H         1 UNK         0.0767 
    102 H102       22.6718   22.9324    0.9789 H         1 UNK         0.0767 
    103 H103       23.4838   21.5028    0.3529 H         1 UNK         0.0767 
    104 H104       25.7603   21.0741    1.0812 H         1 UNK         0.3013 
    105 H105       32.0447   31.0718   -1.0656 H         1 UNK         0.3121 
    106 H106       33.1205   32.1206    0.5753 H         1 UNK         0.0774 
    107 H107       34.0954   30.6938    2.3699 H         1 UNK         0.0815 
    108 H108       32.9500   29.4150    1.9932 H         1 UNK         0.0815 
    109 H109       34.1762   29.8740    0.8170 H         1 UNK         0.0815 
    110 H110       30.5404   32.8222    0.5594 H         1 UNK         0.2987 
    111 H111       28.8743   33.8323    1.6313 H         1 UNK         0.0949 
    112 H112       30.8514   34.1441    3.9556 H         1 UNK         0.0806 
    113 H113       30.7186   35.2300    2.5735 H         1 UNK         0.0806 
    114 H114       29.3875   35.0828    3.7091 H         1 UNK         0.0806 
    115 H115       28.4517   31.2880    1.5079 H         1 UNK         0.3010 
    116 H116       27.3691   29.5025    2.2132 H         1 UNK         0.0829 
    117 H117       25.5718   31.0959    2.8803 H         1 UNK         0.0813 
    118 H118       25.6084   29.6892    3.9309 H         1 UNK         0.0813 
    119 H119       26.2627   31.2167    4.4988 H         1 UNK         0.0813 
    120 H120       29.8430   29.2021    2.6082 H         1 UNK         0.3038 
    121 H121       31.4226   28.0282    3.5365 H         1 UNK         0.0769 
    122 H122       29.2469   26.6861    5.2205 H         1 UNK         0.0811 
    123 H123       30.8090   26.0095    4.7828 H         1 UNK         0.0811 
    124 H124       29.6000   26.2983    3.5386 H         1 UNK         0.0811 
    125 H125       31.3230   30.5685    4.6553 H         1 UNK         0.3204 
    126 H126       31.8511   30.3175    7.5609 H         1 UNK         0.0748 
    127 H127       32.0753   32.7711    7.4519 H         1 UNK         0.0771 
    128 H128       31.9443   32.7470    5.6985 H         1 UNK         0.0771 
    129 H129       30.5660   32.2852    6.6926 H         1 UNK         0.0771 
    130 H130       33.4719   28.6217    6.4110 H         1 UNK         0.2980 
    131 H131       35.9110   29.7955    5.3611 H         1 UNK         0.0545 
    132 H132       36.6658   29.1901    9.2453 H         1 UNK         0.3459 
    133 H133       35.0436   29.3589    8.6191 H         1 UNK         0.3459 
    134 H134       36.5944   27.4783    4.8926 H         1 UNK         0.0616 
    135 H135       35.2740   26.8490    5.8573 H         1 UNK         0.0616 
    136 H136       35.8662   26.2287    2.4674 H         1 UNK         0.0634 
    137 H137       34.9654   25.3631    3.6938 H         1 UNK         0.0634 
@<TRIPOS>BOND
     1    1    2 1    
     2    1   72 1    
     3    1   73 1    
     4    1   74 1    
     5    2    3 2    
     6    2    4 am   BACKBONE|DICT|INTERRES
     7    4    5 1    
     8    4   75 1    
     9    5    6 1    
    10    5   35 1    
    11    5   76 1    
    12    6    7 1    
    13    6   77 1    
    14    6   78 1    
    15    7    8 1    
    16    8    9 1    
    17    8   79 1    
    18    8   80 1    
    19    9   10 ar   
    20    9   14 ar   
    21   10   11 ar   
    22   10   81 1    
    23   11   12 ar   
    24   11   71 1    
    25   12   13 ar   
    26   12   82 1    
    27   13   14 ar   
    28   13   15 1    
    29   14   83 1    
    30   15   16 1    
    31   15   84 1    
    32   15   85 1    
    33   16   17 1    
    34   17   18 1    
    35   17   86 1    
    36   17   87 1    
    37   18   19 1    
    38   18   37 1    
    39   18   88 1    
    40   19   20 am   BACKBONE|DICT|INTERRES
    41   19   89 1    
    42   20   21 2    
    43   20   22 1    
    44   22   23 1    
    45   22   24 1    
    46   22   90 1    
    47   23   91 1    
    48   23   92 1    
    49   23   93 1    
    50   24   25 am   BACKBONE|DICT|INTERRES
    51   24   94 1    
    52   25   26 2    
    53   25   27 1    
    54   27   28 1    
    55   27   29 1    
    56   27   95 1    
    57   28   96 1    
    58   28   97 1    
    59   28   98 1    
    60   29   30 am   BACKBONE|DICT|INTERRES
    61   29   99 1    
    62   30   31 2    
    63   30   32 1    
    64   32   33 1    
    65   32   34 1    
    66   32  100 1    
    67   33  101 1    
    68   33  102 1    
    69   33  103 1    
    70   34   35 am   BACKBONE|DICT|INTERRES
    71   34  104 1    
    72   35   36 2    
    73   37   38 2    
    74   37   39 am   BACKBONE|DICT|INTERRES
    75   39   40 1    
    76   39  105 1    
    77   40   41 1    
    78   40   42 1    
    79   40  106 1    
    80   41  107 1    
    81   41  108 1    
    82   41  109 1    
    83   42   43 2    
    84   42   44 am   BACKBONE|DICT|INTERRES
    85   44   45 1    
    86   44  110 1    
    87   45   46 1    
    88   45   47 1    
    89   45  111 1    
    90   46  112 1    
    91   46  113 1    
    92   46  114 1    
    93   47   48 2    
    94   47   49 am   BACKBONE|DICT|INTERRES
    95   49   50 1    
    96   49  115 1    
    97   50   51 1    
    98   50   52 1    
    99   50  116 1    
   100   51  117 1    
   101   51  118 1    
   102   51  119 1    
   103   52   53 2    
   104   52   54 am   BACKBONE|DICT|INTERRES
   105   54   55 1    
   106   54  120 1    
   107   55   56 1    
   108   55   57 1    
   109   55  121 1    
   110   56  122 1    
   111   56  123 1    
   112   56  124 1    
   113   57   58 2    
   114   57   59 am   BACKBONE|DICT|INTERRES
   115   59   60 1    
   116   59  125 1    
   117   60   61 1    
   118   60   62 1    
   119   60  126 1    
   120   61  127 1    
   121   61  128 1    
   122   61  129 1    
   123   62   63 2    
   124   62   64 am   BACKBONE|DICT|INTERRES
   125   64   65 1    
   126   64  130 1    
   127   65   66 1    
   128   65   69 1    
   129   65  131 1    
   130   66   67 am   BACKBONE|DICT|INTERRES
   131   66   68 2    
   132   67  132 1    
   133   67  133 1    
   134   69   70 1    
   135   69  134 1    
   136   69  135 1    
   137   70   71 1    
   138   71  136 1    
   139   71  137 1    
@<TRIPOS>SUBSTRUCTURE
     1 UNK         1 GROUP             0       ****    0 ROOT    
