@<TRIPOS>MOLECULE
3R136
137   139    1
SMALL
USER_CHARGES


@<TRIPOS>ATOM
      1 CA         28.6205   23.1520   -3.6051 C.3       0 UNK        -0.1979 
      2 C          29.1229   23.7997   -2.3245 C.2       0 UNK         0.4864 
      3 O          28.7836   24.9523   -2.0498 O.2       0 UNK        -0.5359 
      4 N          29.9132   23.0648   -1.5272 N.am      1 UNK        -0.4318 
      5 CA         30.5035   23.5274   -0.2631 C.3       1 UNK         0.0824 
      6 C6         31.4808   22.4841    0.3406 C.3       12 UNK        -0.0944 
      7 S7         30.6607   20.9542    0.9335 S.3       12 UNK        -0.2672 
      8 C8         31.4849   20.5734    2.5182 C.3       12 UNK         0.0333 
      9 C9         31.6884   21.7780    3.4318 C.ar      12 UNK        -0.0807 
     10 C10        32.9865   22.2156    3.7058 C.ar      12 UNK        -0.0894 
     11 C11        33.2140   23.3098    4.5443 C.ar      12 UNK        -0.0804 
     12 C12        32.1235   23.9628    5.1273 C.ar      12 UNK        -0.0824 
     13 C13        30.8167   23.5276    4.8759 C.ar      12 UNK        -0.0762 
     14 C14        30.6042   22.4371    4.0222 C.ar      12 UNK        -0.0782 
     15 C15        29.6395   24.2016    5.5711 C.3       12 UNK         0.0230 
     16 S16        28.7883   25.4113    4.5114 S.3       12 UNK        -0.2608 
     17 C17        30.0068   26.7666    4.4326 C.3       12 UNK        -0.0989 
     18 CA         29.5430   28.0121    3.6328 C.3       5 UNK         0.0716 
     19 N          29.4625   27.7532    2.1911 N.am      5 UNK        -0.4135 
     20 C          29.6154   28.6985    1.2535 C.2       4 UNK         0.5031 
     21 O          29.8672   29.8744    1.5101 O.2       4 UNK        -0.5229 
     22 CA         29.4152   28.2904   -0.2166 C.3       4 UNK         0.0329 
     23 CB         30.7000   27.6867   -0.8029 C.3       4 UNK        -0.2001 
     24 N          28.2939   27.3719   -0.4279 N.am      4 UNK        -0.4303 
     25 C          27.0184   27.6410   -0.1132 C.2       3 UNK         0.5044 
     26 O          26.6529   28.6845    0.4263 O.2       3 UNK        -0.5152 
     27 CA         25.9866   26.5440   -0.4049 C.3       3 UNK         0.0319 
     28 CB         25.6453   26.4827   -1.9025 C.3       3 UNK        -0.2001 
     29 N          26.4794   25.2468    0.0534 N.am      3 UNK        -0.4354 
     30 C          26.4395   24.8462    1.3325 C.2       2 UNK         0.4964 
     31 O          25.8643   25.4676    2.2250 O.2       2 UNK        -0.5047 
     32 CA         27.1670   23.5374    1.6824 C.3       2 UNK         0.0288 
     33 CB         26.1986   22.3461    1.6143 C.3       2 UNK        -0.2113 
     34 N          28.3258   23.2617    0.8331 N.am      2 UNK        -0.4145 
     35 C          29.4419   24.0040    0.7527 C.2       1 UNK         0.5006 
     36 O          29.6262   25.0466    1.3777 O.2       1 UNK        -0.5103 
     37 C          28.2684   28.6693    4.2162 C.2       5 UNK         0.5055 
     38 O          28.3162   29.1296    5.3575 O.2       5 UNK        -0.5220 
     39 N          27.1639   28.7121    3.4542 N.am      6 UNK        -0.4450 
     40 CA         25.9081   29.3651    3.8424 C.3       6 UNK         0.0367 
     41 CB         24.7236   28.5059    3.3725 C.3       6 UNK        -0.1929 
     42 C          25.7909   30.7919    3.2770 C.2       6 UNK         0.5070 
     43 O          25.1049   31.6186    3.8776 O.2       6 UNK        -0.5237 
     44 N          26.4531   31.0503    2.1411 N.am      7 UNK        -0.4739 
     45 CA         26.5129   32.3242    1.4165 C.3       7 UNK         0.0276 
     46 CB         27.4424   32.1785    0.1990 C.3       7 UNK        -0.1927 
     47 C          26.8675   33.5964    2.2268 C.2       7 UNK         0.5013 
     48 O          26.1848   34.6005    2.0288 O.2       7 UNK        -0.5193 
     49 N          27.8816   33.6318    3.1062 N.am      8 UNK        -0.4253 
     50 CA         28.8677   32.6078    3.4385 C.3       8 UNK         0.0242 
     51 CB         28.7831   32.3119    4.9450 C.3       8 UNK        -0.2000 
     52 C          30.2736   33.1056    3.0962 C.2       8 UNK         0.4948 
     53 O          30.6074   34.2545    3.3969 O.2       8 UNK        -0.5275 
     54 N          31.0796   32.2030    2.5352 N.am      9 UNK        -0.4246 
     55 CA         32.5306   32.2985    2.4268 C.3       9 UNK         0.0261 
     56 CB         32.9325   32.0617    0.9619 C.3       9 UNK        -0.1959 
     57 C          33.1341   31.2109    3.3259 C.2       9 UNK         0.5033 
     58 O          32.4709   30.2030    3.5893 O.2       9 UNK        -0.5390 
     59 N          34.3860   31.4042    3.7603 N.am      10 UNK        -0.4215 
     60 CA         35.1417   30.4478    4.5767 C.3       10 UNK         0.0240 
     61 CB         36.4769   31.0840    5.0022 C.3       10 UNK        -0.1982 
     62 C          35.3591   29.1228    3.8229 C.2       10 UNK         0.4970 
     63 O          36.2152   29.0657    2.9380 O.2       10 UNK        -0.4916 
     64 N          34.5418   28.1137    4.1565 N.am      11 UNK        -0.4279 
     65 CA         34.4244   26.8344    3.4361 C.3       11 UNK         0.1003 
     66 C          33.8220   26.9792    2.0014 C.2       11 UNK         0.5709 
     67 N          33.0587   28.0295    1.7232 N.am      11 UNK        -0.7358 
     68 O          34.0272   26.1377    1.1310 O.2       11 UNK        -0.4999 
     69 C69        35.7433   26.0099    3.5136 C.3       12 UNK        -0.0954 
     70 S70        35.5374   24.2091    3.3245 S.3       12 UNK        -0.2268 
     71 C71        34.6433   23.7459    4.8437 C.3       12 UNK         0.0203 
     72 H72        27.5311   23.1325   -3.6124 H         1 UNK         0.0888 
     73 H73        28.9569   23.7241   -4.4692 H         1 UNK         0.0888 
     74 H74        28.9801   22.1289   -3.7135 H         1 UNK         0.0888 
     75 H75        30.1469   22.1189   -1.7946 H         1 UNK         0.3017 
     76 H76        31.0985   24.4073   -0.5161 H         1 UNK         0.0873 
     77 H77        32.0493   22.9540    1.1428 H         1 UNK         0.0745 
     78 H78        32.2257   22.2007   -0.4045 H         1 UNK         0.0745 
     79 H79        30.8936   19.8242    3.0463 H         1 UNK         0.0705 
     80 H80        32.4410   20.0969    2.2961 H         1 UNK         0.0705 
     81 H81        33.8306   21.7049    3.2623 H         1 UNK         0.1334 
     82 H82        32.2908   24.7981    5.7935 H         1 UNK         0.1417 
     83 H83        29.5971   22.0973    3.8221 H         1 UNK         0.1562 
     84 H84        29.9635   24.6914    6.4907 H         1 UNK         0.0748 
     85 H85        28.9187   23.4412    5.8752 H         1 UNK         0.0748 
     86 H86        30.9258   26.3779    3.9913 H         1 UNK         0.0940 
     87 H87        30.2648   27.0571    5.4527 H         1 UNK         0.0940 
     88 H88        30.3280   28.7565    3.7736 H         1 UNK         0.0703 
     89 H89        29.3295   26.7824    1.9089 H         1 UNK         0.3081 
     90 H90        29.1871   29.1998   -0.7765 H         1 UNK         0.0719 
     91 H91        31.0299   26.8134   -0.2398 H         1 UNK         0.0809 
     92 H92        31.5104   28.4160   -0.7906 H         1 UNK         0.0809 
     93 H93        30.5588   27.3814   -1.8400 H         1 UNK         0.0809 
     94 H94        28.5055   26.4889   -0.8859 H         1 UNK         0.2990 
     95 H95        25.0699   26.7897    0.1359 H         1 UNK         0.0690 
     96 H96        24.8878   25.7253   -2.1043 H         1 UNK         0.0788 
     97 H97        26.5179   26.2543   -2.5148 H         1 UNK         0.0788 
     98 H98        25.2480   27.4381   -2.2478 H         1 UNK         0.0788 
     99 H99        27.0137   24.7035   -0.6113 H         1 UNK         0.2993 
    100 H100       27.5246   23.6233    2.7086 H         1 UNK         0.0949 
    101 H101       26.6796   21.4247    1.9437 H         1 UNK         0.0767 
    102 H102       25.3357   22.5085    2.2618 H         1 UNK         0.0767 
    103 H103       25.8226   22.1876    0.6027 H         1 UNK         0.0767 
    104 H104       28.2876   22.4207    0.2756 H         1 UNK         0.3013 
    105 H105       27.1964   28.3172    2.5227 H         1 UNK         0.3121 
    106 H106       25.8514   29.4399    4.9305 H         1 UNK         0.0774 
    107 H107       23.7742   28.9554    3.6664 H         1 UNK         0.0815 
    108 H108       24.7084   28.3910    2.2884 H         1 UNK         0.0815 
    109 H109       24.7603   27.5092    3.8126 H         1 UNK         0.0815 
    110 H110       26.8981   30.2660    1.6776 H         1 UNK         0.2987 
    111 H111       25.5039   32.4837    1.0312 H         1 UNK         0.0949 
    112 H112       28.4697   31.9634    0.4924 H         1 UNK         0.0806 
    113 H113       27.1098   31.3766   -0.4606 H         1 UNK         0.0806 
    114 H114       27.4592   33.0953   -0.3919 H         1 UNK         0.0806 
    115 H115       28.0751   34.5232    3.5403 H         1 UNK         0.3010 
    116 H116       28.7010   31.6842    2.8944 H         1 UNK         0.0829 
    117 H117       27.8058   31.9156    5.2194 H         1 UNK         0.0813 
    118 H118       29.5279   31.5708    5.2387 H         1 UNK         0.0813 
    119 H119       28.9601   33.2053    5.5452 H         1 UNK         0.0813 
    120 H120       30.7048   31.2765    2.3276 H         1 UNK         0.3038 
    121 H121       32.8858   33.2777    2.7550 H         1 UNK         0.0769 
    122 H122       32.4901   32.8116    0.3059 H         1 UNK         0.0811 
    123 H123       32.6109   31.0802    0.6098 H         1 UNK         0.0811 
    124 H124       34.0144   32.1168    0.8356 H         1 UNK         0.0811 
    125 H125       34.8777   32.2380    3.4722 H         1 UNK         0.3204 
    126 H126       34.5644   30.2458    5.4817 H         1 UNK         0.0748 
    127 H127       36.3162   31.9792    5.6035 H         1 UNK         0.0771 
    128 H128       37.0633   30.3904    5.6064 H         1 UNK         0.0771 
    129 H129       37.0874   31.3628    4.1422 H         1 UNK         0.0771 
    130 H130       33.8294   28.2894    4.8503 H         1 UNK         0.2980 
    131 H131       33.6627   26.2860    3.9888 H         1 UNK         0.0545 
    132 H132       32.6837   28.1211    0.7959 H         1 UNK         0.3459 
    133 H133       32.8575   28.7321    2.4290 H         1 UNK         0.3459 
    134 H134       36.2331   26.1733    4.4749 H         1 UNK         0.0616 
    135 H135       36.4530   26.3535    2.7594 H         1 UNK         0.0616 
    136 H136       34.6631   24.5685    5.5601 H         1 UNK         0.0634 
    137 H137       35.1703   22.9168    5.3176 H         1 UNK         0.0634 
@<TRIPOS>BOND
     1    1    2 1    
     2    1   72 1    
     3    1   73 1    
     4    1   74 1    
     5    2    3 2    
     6    2    4 am   BACKBONE|DICT|INTERRES
     7    4    5 1    
     8    4   75 1    
     9    5    6 1    
    10    5   35 1    
    11    5   76 1    
    12    6    7 1    
    13    6   77 1    
    14    6   78 1    
    15    7    8 1    
    16    8    9 1    
    17    8   79 1    
    18    8   80 1    
    19    9   10 ar   
    20    9   14 ar   
    21   10   11 ar   
    22   10   81 1    
    23   11   12 ar   
    24   11   71 1    
    25   12   13 ar   
    26   12   82 1    
    27   13   14 ar   
    28   13   15 1    
    29   14   83 1    
    30   15   16 1    
    31   15   84 1    
    32   15   85 1    
    33   16   17 1    
    34   17   18 1    
    35   17   86 1    
    36   17   87 1    
    37   18   19 1    
    38   18   37 1    
    39   18   88 1    
    40   19   20 am   BACKBONE|DICT|INTERRES
    41   19   89 1    
    42   20   21 2    
    43   20   22 1    
    44   22   23 1    
    45   22   24 1    
    46   22   90 1    
    47   23   91 1    
    48   23   92 1    
    49   23   93 1    
    50   24   25 am   BACKBONE|DICT|INTERRES
    51   24   94 1    
    52   25   26 2    
    53   25   27 1    
    54   27   28 1    
    55   27   29 1    
    56   27   95 1    
    57   28   96 1    
    58   28   97 1    
    59   28   98 1    
    60   29   30 am   BACKBONE|DICT|INTERRES
    61   29   99 1    
    62   30   31 2    
    63   30   32 1    
    64   32   33 1    
    65   32   34 1    
    66   32  100 1    
    67   33  101 1    
    68   33  102 1    
    69   33  103 1    
    70   34   35 am   BACKBONE|DICT|INTERRES
    71   34  104 1    
    72   35   36 2    
    73   37   38 2    
    74   37   39 am   BACKBONE|DICT|INTERRES
    75   39   40 1    
    76   39  105 1    
    77   40   41 1    
    78   40   42 1    
    79   40  106 1    
    80   41  107 1    
    81   41  108 1    
    82   41  109 1    
    83   42   43 2    
    84   42   44 am   BACKBONE|DICT|INTERRES
    85   44   45 1    
    86   44  110 1    
    87   45   46 1    
    88   45   47 1    
    89   45  111 1    
    90   46  112 1    
    91   46  113 1    
    92   46  114 1    
    93   47   48 2    
    94   47   49 am   BACKBONE|DICT|INTERRES
    95   49   50 1    
    96   49  115 1    
    97   50   51 1    
    98   50   52 1    
    99   50  116 1    
   100   51  117 1    
   101   51  118 1    
   102   51  119 1    
   103   52   53 2    
   104   52   54 am   BACKBONE|DICT|INTERRES
   105   54   55 1    
   106   54  120 1    
   107   55   56 1    
   108   55   57 1    
   109   55  121 1    
   110   56  122 1    
   111   56  123 1    
   112   56  124 1    
   113   57   58 2    
   114   57   59 am   BACKBONE|DICT|INTERRES
   115   59   60 1    
   116   59  125 1    
   117   60   61 1    
   118   60   62 1    
   119   60  126 1    
   120   61  127 1    
   121   61  128 1    
   122   61  129 1    
   123   62   63 2    
   124   62   64 am   BACKBONE|DICT|INTERRES
   125   64   65 1    
   126   64  130 1    
   127   65   66 1    
   128   65   69 1    
   129   65  131 1    
   130   66   67 am   BACKBONE|DICT|INTERRES
   131   66   68 2    
   132   67  132 1    
   133   67  133 1    
   134   69   70 1    
   135   69  134 1    
   136   69  135 1    
   137   70   71 1    
   138   71  136 1    
   139   71  137 1    
@<TRIPOS>SUBSTRUCTURE
     1 UNK         1 GROUP             0       ****    0 ROOT    
