@<TRIPOS>MOLECULE
3R136
137   139    1
SMALL
USER_CHARGES


@<TRIPOS>ATOM
      1 CA         27.3831   17.0164    1.2762 C.3       0 UNK        -0.1979 
      2 C          27.4338   18.0417    0.1527 C.2       0 UNK         0.4864 
      3 O          26.6566   17.9448   -0.7989 O.2       0 UNK        -0.5359 
      4 N          28.3480   19.0148    0.2518 N.am      1 UNK        -0.4318 
      5 CA         28.4969   20.1289   -0.6897 C.3       1 UNK         0.0824 
      6 C6         29.9515   20.6729   -0.6920 C.3       12 UNK        -0.0944 
      7 S7         30.5260   21.3346    0.9123 S.3       12 UNK        -0.2672 
      8 C8         30.9632   23.0379    0.4358 C.3       12 UNK         0.0333 
      9 C9         31.3310   23.9001    1.6368 C.ar      12 UNK        -0.0807 
     10 C10        32.5864   24.5129    1.6940 C.ar      12 UNK        -0.0894 
     11 C11        32.9344   25.3179    2.7811 C.ar      12 UNK        -0.0804 
     12 C12        32.0254   25.4871    3.8295 C.ar      12 UNK        -0.0824 
     13 C13        30.7634   24.8861    3.7870 C.ar      12 UNK        -0.0762 
     14 C14        30.4160   24.1070    2.6773 C.ar      12 UNK        -0.0782 
     15 C15        29.8060   25.0241    4.9673 C.3       12 UNK         0.0230 
     16 S16        28.6224   26.4011    4.7908 S.3       12 UNK        -0.2608 
     17 C17        29.6879   27.8744    5.0325 C.3       12 UNK        -0.0989 
     18 CA         29.5803   28.9306    3.8968 C.3       5 UNK         0.0716 
     19 N          29.4797   28.2883    2.5862 N.am      5 UNK        -0.4135 
     20 C          29.5989   28.8647    1.3867 C.2       4 UNK         0.5031 
     21 O          29.8996   30.0421    1.2110 O.2       4 UNK        -0.5229 
     22 CA         29.2384   27.9795    0.1810 C.3       4 UNK         0.0329 
     23 CB         30.4697   27.1981   -0.3013 C.3       4 UNK        -0.2001 
     24 N          28.1456   27.0410    0.4677 N.am      4 UNK        -0.4303 
     25 C          26.9079   27.3770    0.8557 C.2       3 UNK         0.5044 
     26 O          26.5470   28.5476    0.9919 O.2       3 UNK        -0.5152 
     27 CA         25.9336   26.2227    1.1819 C.3       3 UNK         0.0319 
     28 CB         24.5198   26.7240    1.5289 C.3       3 UNK        -0.2001 
     29 N          25.8316   25.2210    0.1141 N.am      3 UNK        -0.4354 
     30 C          26.7653   24.3064   -0.1750 C.2       2 UNK         0.4964 
     31 O          27.8463   24.2469    0.4116 O.2       2 UNK        -0.5047 
     32 CA         26.4572   23.3460   -1.3394 C.3       2 UNK         0.0288 
     33 CB         26.5539   24.0879   -2.6842 C.3       2 UNK        -0.2113 
     34 N          27.3575   22.1880   -1.3828 N.am      2 UNK        -0.4145 
     35 C          27.4296   21.2249   -0.4522 C.2       1 UNK         0.5006 
     36 O          26.6951   21.1800    0.5404 O.2       1 UNK        -0.5103 
     37 C          28.4669   29.9630    4.1928 C.2       5 UNK         0.5055 
     38 O          28.6380   30.7501    5.1253 O.2       5 UNK        -0.5220 
     39 N          27.3583   29.9487    3.4376 N.am      6 UNK        -0.4450 
     40 CA         26.2925   30.9501    3.5191 C.3       6 UNK         0.0367 
     41 CB         24.9224   30.2526    3.5189 C.3       6 UNK        -0.1929 
     42 C          26.3891   31.9446    2.3527 C.2       6 UNK         0.5070 
     43 O          26.1728   33.1387    2.5609 O.2       6 UNK        -0.5237 
     44 N          26.6992   31.4428    1.1478 N.am      7 UNK        -0.4739 
     45 CA         26.8343   32.2362   -0.0777 C.3       7 UNK         0.0276 
     46 CB         26.8770   31.2887   -1.2871 C.3       7 UNK        -0.1927 
     47 C          28.0605   33.1674   -0.0811 C.2       7 UNK         0.5013 
     48 O          27.9925   34.2501   -0.6651 O.2       7 UNK        -0.5193 
     49 N          29.1491   32.7331    0.5603 N.am      8 UNK        -0.4253 
     50 CA         30.4036   33.4612    0.7260 C.3       8 UNK         0.0242 
     51 CB         31.4031   32.9885   -0.3496 C.3       8 UNK        -0.2000 
     52 C          30.9165   33.2461    2.1607 C.2       8 UNK         0.4948 
     53 O          30.1406   32.8647    3.0399 O.2       8 UNK        -0.5275 
     54 N          32.2086   33.5134    2.3899 N.am      9 UNK        -0.4246 
     55 CA         32.8867   33.2503    3.6606 C.3       9 UNK         0.0261 
     56 CB         34.2323   33.9941    3.6821 C.3       9 UNK        -0.1959 
     57 C          33.1015   31.7414    3.8692 C.2       9 UNK         0.5033 
     58 O          33.4452   31.0373    2.9158 O.2       9 UNK        -0.5390 
     59 N          32.9239   31.2798    5.1126 N.am      10 UNK        -0.4215 
     60 CA         33.1598   29.8932    5.5149 C.3       10 UNK         0.0240 
     61 CB         32.4538   29.6272    6.8544 C.3       10 UNK        -0.1982 
     62 C          34.6623   29.5851    5.6193 C.2       10 UNK         0.4970 
     63 O          35.4433   30.4493    6.0239 O.2       10 UNK        -0.4916 
     64 N          35.0207   28.3448    5.2778 N.am      11 UNK        -0.4279 
     65 CA         36.3859   27.7993    5.3233 C.3       11 UNK         0.1003 
     66 C          36.8342   27.2847    6.7234 C.2       11 UNK         0.5709 
     67 N          35.9769   27.2737    7.7378 N.am      11 UNK        -0.7358 
     68 O          37.9903   26.9064    6.8978 O.2       11 UNK        -0.4999 
     69 C69        36.6057   26.7468    4.1997 C.3       12 UNK        -0.0954 
     70 S70        35.3408   25.4270    4.1636 S.3       12 UNK        -0.2268 
     71 C71        34.2786   26.0293    2.8125 C.3       12 UNK         0.0203 
     72 H72        28.1339   17.2131    2.0415 H         1 UNK         0.0888 
     73 H73        26.4029   17.0301    1.7519 H         1 UNK         0.0888 
     74 H74        27.5568   16.0162    0.8803 H         1 UNK         0.0888 
     75 H75        28.9364   19.0679    1.0712 H         1 UNK         0.3017 
     76 H76        28.3066   19.7363   -1.6914 H         1 UNK         0.0873 
     77 H77        30.6329   19.8686   -0.9738 H         1 UNK         0.0745 
     78 H78        30.0737   21.4286   -1.4697 H         1 UNK         0.0745 
     79 H79        31.7927   22.9918   -0.2715 H         1 UNK         0.0705 
     80 H80        30.1385   23.5003   -0.1022 H         1 UNK         0.0705 
     81 H81        33.2903   24.3731    0.8849 H         1 UNK         0.1334 
     82 H82        32.3146   26.0758    4.6874 H         1 UNK         0.1417 
     83 H83        29.4419   23.6377    2.6298 H         1 UNK         0.1562 
     84 H84        30.3645   25.1459    5.8969 H         1 UNK         0.0748 
     85 H85        29.2403   24.0981    5.0817 H         1 UNK         0.0748 
     86 H86        30.7245   27.5578    5.1144 H         1 UNK         0.0940 
     87 H87        29.4620   28.3068    6.0096 H         1 UNK         0.0940 
     88 H88        30.5064   29.5087    3.8874 H         1 UNK         0.0703 
     89 H89        29.2244   27.3110    2.6183 H         1 UNK         0.3081 
     90 H90        28.9083   28.6344   -0.6268 H         1 UNK         0.0719 
     91 H91        31.2848   27.8755   -0.5595 H         1 UNK         0.0809 
     92 H92        30.2442   26.6073   -1.1892 H         1 UNK         0.0809 
     93 H93        30.8409   26.5204    0.4675 H         1 UNK         0.0809 
     94 H94        28.3486   26.0464    0.3949 H         1 UNK         0.2990 
     95 H95        26.3289   25.7276    2.0718 H         1 UNK         0.0690 
     96 H96        23.8517   25.8970    1.7701 H         1 UNK         0.0788 
     97 H97        24.0767   27.2871    0.7064 H         1 UNK         0.0788 
     98 H98        24.5424   27.3776    2.4010 H         1 UNK         0.0788 
     99 H99        24.9877   25.2447   -0.4405 H         1 UNK         0.2993 
    100 H100       25.4386   22.9741   -1.2088 H         1 UNK         0.0949 
    101 H101       25.8611   24.9295   -2.7253 H         1 UNK         0.0767 
    102 H102       27.5562   24.4839   -2.8542 H         1 UNK         0.0767 
    103 H103       26.3064   23.4312   -3.5187 H         1 UNK         0.0767 
    104 H104       28.0043   22.1601   -2.1568 H         1 UNK         0.3013 
    105 H105       27.2814   29.2791    2.6802 H         1 UNK         0.3121 
    106 H106       26.3744   31.5185    4.4480 H         1 UNK         0.0774 
    107 H107       24.1210   30.9770    3.6693 H         1 UNK         0.0815 
    108 H108       24.7239   29.7454    2.5748 H         1 UNK         0.0815 
    109 H109       24.8500   29.5168    4.3198 H         1 UNK         0.0815 
    110 H110       26.7889   30.4354    1.0491 H         1 UNK         0.2987 
    111 H111       25.9459   32.8652   -0.1679 H         1 UNK         0.0949 
    112 H112       25.9902   30.6559   -1.3287 H         1 UNK         0.0806 
    113 H113       26.9201   31.8504   -2.2212 H         1 UNK         0.0806 
    114 H114       27.7516   30.6387   -1.2569 H         1 UNK         0.0806 
    115 H115       29.1267   31.8265    1.0215 H         1 UNK         0.3010 
    116 H116       30.2276   34.5322    0.6072 H         1 UNK         0.0829 
    117 H117       30.9741   33.0687   -1.3486 H         1 UNK         0.0813 
    118 H118       32.3123   33.5898   -0.3481 H         1 UNK         0.0813 
    119 H119       31.6914   31.9473   -0.1954 H         1 UNK         0.0813 
    120 H120       32.7926   33.7895    1.6145 H         1 UNK         0.3038 
    121 H121       32.2639   33.6380    4.4700 H         1 UNK         0.0769 
    122 H122       34.8950   33.6531    2.8855 H         1 UNK         0.0811 
    123 H123       34.7520   33.8324    4.6276 H         1 UNK         0.0811 
    124 H124       34.0945   35.0696    3.5686 H         1 UNK         0.0811 
    125 H125       32.6882   31.9306    5.8478 H         1 UNK         0.3204 
    126 H126       32.7222   29.2397    4.7573 H         1 UNK         0.0748 
    127 H127       32.5471   28.5807    7.1472 H         1 UNK         0.0771 
    128 H128       32.8752   30.2304    7.6599 H         1 UNK         0.0771 
    129 H129       31.3884   29.8510    6.7928 H         1 UNK         0.0771 
    130 H130       34.3129   27.6859    4.9935 H         1 UNK         0.2980 
    131 H131       37.0694   28.6223    5.1059 H         1 UNK         0.0545 
    132 H132       35.0296   27.5889    7.6131 H         1 UNK         0.3459 
    133 H133       36.2858   26.9445    8.6389 H         1 UNK         0.3459 
    134 H134       36.6158   27.2504    3.2318 H         1 UNK         0.0616 
    135 H135       37.5888   26.2808    4.2869 H         1 UNK         0.0616 
    136 H136       34.1025   27.1000    2.9225 H         1 UNK         0.0634 
    137 H137       34.8088   25.9030    1.8672 H         1 UNK         0.0634 
@<TRIPOS>BOND
     1    1    2 1    
     2    1   72 1    
     3    1   73 1    
     4    1   74 1    
     5    2    3 2    
     6    2    4 am   BACKBONE|DICT|INTERRES
     7    4    5 1    
     8    4   75 1    
     9    5    6 1    
    10    5   35 1    
    11    5   76 1    
    12    6    7 1    
    13    6   77 1    
    14    6   78 1    
    15    7    8 1    
    16    8    9 1    
    17    8   79 1    
    18    8   80 1    
    19    9   10 ar   
    20    9   14 ar   
    21   10   11 ar   
    22   10   81 1    
    23   11   12 ar   
    24   11   71 1    
    25   12   13 ar   
    26   12   82 1    
    27   13   14 ar   
    28   13   15 1    
    29   14   83 1    
    30   15   16 1    
    31   15   84 1    
    32   15   85 1    
    33   16   17 1    
    34   17   18 1    
    35   17   86 1    
    36   17   87 1    
    37   18   19 1    
    38   18   37 1    
    39   18   88 1    
    40   19   20 am   BACKBONE|DICT|INTERRES
    41   19   89 1    
    42   20   21 2    
    43   20   22 1    
    44   22   23 1    
    45   22   24 1    
    46   22   90 1    
    47   23   91 1    
    48   23   92 1    
    49   23   93 1    
    50   24   25 am   BACKBONE|DICT|INTERRES
    51   24   94 1    
    52   25   26 2    
    53   25   27 1    
    54   27   28 1    
    55   27   29 1    
    56   27   95 1    
    57   28   96 1    
    58   28   97 1    
    59   28   98 1    
    60   29   30 am   BACKBONE|DICT|INTERRES
    61   29   99 1    
    62   30   31 2    
    63   30   32 1    
    64   32   33 1    
    65   32   34 1    
    66   32  100 1    
    67   33  101 1    
    68   33  102 1    
    69   33  103 1    
    70   34   35 am   BACKBONE|DICT|INTERRES
    71   34  104 1    
    72   35   36 2    
    73   37   38 2    
    74   37   39 am   BACKBONE|DICT|INTERRES
    75   39   40 1    
    76   39  105 1    
    77   40   41 1    
    78   40   42 1    
    79   40  106 1    
    80   41  107 1    
    81   41  108 1    
    82   41  109 1    
    83   42   43 2    
    84   42   44 am   BACKBONE|DICT|INTERRES
    85   44   45 1    
    86   44  110 1    
    87   45   46 1    
    88   45   47 1    
    89   45  111 1    
    90   46  112 1    
    91   46  113 1    
    92   46  114 1    
    93   47   48 2    
    94   47   49 am   BACKBONE|DICT|INTERRES
    95   49   50 1    
    96   49  115 1    
    97   50   51 1    
    98   50   52 1    
    99   50  116 1    
   100   51  117 1    
   101   51  118 1    
   102   51  119 1    
   103   52   53 2    
   104   52   54 am   BACKBONE|DICT|INTERRES
   105   54   55 1    
   106   54  120 1    
   107   55   56 1    
   108   55   57 1    
   109   55  121 1    
   110   56  122 1    
   111   56  123 1    
   112   56  124 1    
   113   57   58 2    
   114   57   59 am   BACKBONE|DICT|INTERRES
   115   59   60 1    
   116   59  125 1    
   117   60   61 1    
   118   60   62 1    
   119   60  126 1    
   120   61  127 1    
   121   61  128 1    
   122   61  129 1    
   123   62   63 2    
   124   62   64 am   BACKBONE|DICT|INTERRES
   125   64   65 1    
   126   64  130 1    
   127   65   66 1    
   128   65   69 1    
   129   65  131 1    
   130   66   67 am   BACKBONE|DICT|INTERRES
   131   66   68 2    
   132   67  132 1    
   133   67  133 1    
   134   69   70 1    
   135   69  134 1    
   136   69  135 1    
   137   70   71 1    
   138   71  136 1    
   139   71  137 1    
@<TRIPOS>SUBSTRUCTURE
     1 UNK         1 GROUP             0       ****    0 ROOT    
