@<TRIPOS>MOLECULE
3R136
137   139    1
SMALL
USER_CHARGES


@<TRIPOS>ATOM
      1 CA         29.8652   25.1551    3.0258 C.3       0 UNK        -0.1979 
      2 C          29.5207   23.6766    3.0227 C.2       0 UNK         0.4864 
      3 O          28.8017   23.2047    3.9046 O.2       0 UNK        -0.5359 
      4 N          30.0574   22.9378    2.0449 N.am      1 UNK        -0.4318 
      5 CA         29.8872   21.4873    1.9160 C.3       1 UNK         0.0824 
      6 C6         30.9658   20.8383    1.0137 C.3       12 UNK        -0.0944 
      7 S7         32.6688   21.2565    1.5185 S.3       12 UNK        -0.2672 
      8 C8         33.2627   22.1943    0.0745 C.3       12 UNK         0.0333 
      9 C9         32.7193   23.6171    0.0379 C.ar      12 UNK        -0.0807 
     10 C10        33.3917   24.6352    0.7203 C.ar      12 UNK        -0.0894 
     11 C11        32.9545   25.9600    0.6342 C.ar      12 UNK        -0.0804 
     12 C12        31.8266   26.2604   -0.1345 C.ar      12 UNK        -0.0824 
     13 C13        31.1198   25.2481   -0.7940 C.ar      12 UNK        -0.0762 
     14 C14        31.5801   23.9290   -0.7127 C.ar      12 UNK        -0.0782 
     15 C15        29.8886   25.5797   -1.6320 C.3       12 UNK         0.0230 
     16 S16        28.4354   25.9949   -0.6086 S.3       12 UNK        -0.2608 
     17 C17        28.7640   27.7495   -0.2254 C.3       12 UNK        -0.0989 
     18 CA         27.4947   28.5667    0.1193 C.3       5 UNK         0.0716 
     19 N          26.8450   28.0551    1.3281 N.am      5 UNK        -0.4135 
     20 C          25.7204   28.5049    1.8978 C.2       4 UNK         0.5031 
     21 O          25.0436   29.4346    1.4546 O.2       4 UNK        -0.5229 
     22 CA         25.2571   27.7390    3.1545 C.3       4 UNK         0.0329 
     23 CB         24.2016   28.5157    3.9631 C.3       4 UNK        -0.2001 
     24 N          24.7144   26.4260    2.7936 N.am      4 UNK        -0.4303 
     25 C          25.4498   25.3902    2.3695 C.2       3 UNK         0.5044 
     26 O          26.6835   25.3988    2.3661 O.2       3 UNK        -0.5152 
     27 CA         24.6996   24.1704    1.8115 C.3       3 UNK         0.0319 
     28 CB         23.5369   24.5875    0.8794 C.3       3 UNK        -0.2001 
     29 N          25.6824   23.3684    1.0877 N.am      3 UNK        -0.4354 
     30 C          25.5114   22.1675    0.5273 C.2       2 UNK         0.4964 
     31 O          24.4709   21.5124    0.5933 O.2       2 UNK        -0.5047 
     32 CA         26.7090   21.6088   -0.2552 C.3       2 UNK         0.0288 
     33 CB         26.7515   22.2063   -1.6723 C.3       2 UNK        -0.2113 
     34 N          27.9864   21.8669    0.4123 N.am      2 UNK        -0.4145 
     35 C          28.4817   21.1150    1.4063 C.2       1 UNK         0.5006 
     36 O          27.8935   20.1487    1.8955 O.2       1 UNK        -0.5103 
     37 C          27.8654   30.0602    0.2257 C.2       5 UNK         0.5055 
     38 O          27.7120   30.7906   -0.7540 O.2       5 UNK        -0.5220 
     39 N          28.3772   30.4657    1.3994 N.am      6 UNK        -0.4450 
     40 CA         28.8631   31.8087    1.7486 C.3       6 UNK         0.0367 
     41 CB         27.7044   32.8277    1.7508 C.3       6 UNK        -0.1929 
     42 C          30.0697   32.2831    0.9093 C.2       6 UNK         0.5070 
     43 O          30.3188   33.4861    0.8223 O.2       6 UNK        -0.5237 
     44 N          30.8167   31.3352    0.3235 N.am      7 UNK        -0.4739 
     45 CA         32.0239   31.5861   -0.4748 C.3       7 UNK         0.0276 
     46 CB         32.3108   30.3506   -1.3438 C.3       7 UNK        -0.1927 
     47 C          33.2546   31.9471    0.3801 C.2       7 UNK         0.5013 
     48 O          34.2266   32.4879   -0.1483 O.2       7 UNK        -0.5193 
     49 N          33.1832   31.6449    1.6781 N.am      8 UNK        -0.4253 
     50 CA         34.1388   31.9779    2.7240 C.3       8 UNK         0.0242 
     51 CB         35.2102   30.8773    2.8203 C.3       8 UNK        -0.2000 
     52 C          33.3366   32.0857    4.0249 C.2       8 UNK         0.4948 
     53 O          32.2288   31.5446    4.0939 O.2       8 UNK        -0.5275 
     54 N          33.9082   32.7400    5.0447 N.am      9 UNK        -0.4246 
     55 CA         33.2738   32.9611    6.3531 C.3       9 UNK         0.0261 
     56 CB         34.1923   33.8290    7.2290 C.3       9 UNK        -0.1959 
     57 C          32.8861   31.6672    7.0947 C.2       9 UNK         0.5033 
     58 O          31.8609   31.6419    7.7766 O.2       9 UNK        -0.5390 
     59 N          33.6894   30.6100    6.9167 N.am      10 UNK        -0.4215 
     60 CA         33.4290   29.2645    7.4352 C.3       10 UNK         0.0240 
     61 CB         34.7548   28.4852    7.4711 C.3       10 UNK        -0.1982 
     62 C          32.3737   28.4834    6.6264 C.2       10 UNK         0.4970 
     63 O          31.8945   27.4597    7.1157 O.2       10 UNK        -0.4916 
     64 N          32.0476   28.9528    5.4154 N.am      11 UNK        -0.4279 
     65 CA         31.1302   28.3094    4.4633 C.3       11 UNK         0.1003 
     66 C          29.7426   29.0070    4.3866 C.2       11 UNK         0.5709 
     67 N          29.4284   29.9710    5.2434 N.am      11 UNK        -0.7358 
     68 O          28.9298   28.6692    3.5296 O.2       11 UNK        -0.4999 
     69 C69        31.7844   28.1687    3.0602 C.3       12 UNK        -0.0954 
     70 S70        33.3144   27.1774    3.1050 S.3       12 UNK        -0.2268 
     71 C71        33.7314   27.0646    1.3387 C.3       12 UNK         0.0203 
     72 H72        29.1264   25.7234    3.5908 H         1 UNK         0.0888 
     73 H73        30.8433   25.3045    3.4814 H         1 UNK         0.0888 
     74 H74        29.8899   25.5526    2.0123 H         1 UNK         0.0888 
     75 H75        30.6905   23.3704    1.3852 H         1 UNK         0.3017 
     76 H76        29.9917   21.0542    2.9136 H         1 UNK         0.0873 
     77 H77        30.8167   21.1107   -0.0321 H         1 UNK         0.0745 
     78 H78        30.8743   19.7509    1.0496 H         1 UNK         0.0745 
     79 H79        34.3529   22.2246    0.1088 H         1 UNK         0.0705 
     80 H80        33.0107   21.6611   -0.8436 H         1 UNK         0.0705 
     81 H81        34.2727   24.4002    1.3023 H         1 UNK         0.1334 
     82 H82        31.5068   27.2869   -0.2249 H         1 UNK         0.1417 
     83 H83        31.0648   23.1476   -1.2545 H         1 UNK         0.1562 
     84 H84        29.6241   24.7302   -2.2634 H         1 UNK         0.0748 
     85 H85        30.1153   26.3972   -2.3177 H         1 UNK         0.0748 
     86 H86        29.2746   28.1957   -1.0816 H         1 UNK         0.0940 
     87 H87        29.4628   27.7862    0.6107 H         1 UNK         0.0940 
     88 H88        26.7799   28.4650   -0.6999 H         1 UNK         0.0703 
     89 H89        27.2613   27.2239    1.7361 H         1 UNK         0.3081 
     90 H90        26.1297   27.5972    3.7966 H         1 UNK         0.0719 
     91 H91        24.5775   29.4992    4.2483 H         1 UNK         0.0809 
     92 H92        23.2844   28.6699    3.3932 H         1 UNK         0.0809 
     93 H93        23.9416   27.9907    4.8823 H         1 UNK         0.0809 
     94 H94        23.7086   26.3548    2.7443 H         1 UNK         0.2990 
     95 H95        24.3166   23.5873    2.6507 H         1 UNK         0.0690 
     96 H96        23.0387   23.7246    0.4388 H         1 UNK         0.0788 
     97 H97        23.8870   25.2195    0.0618 H         1 UNK         0.0788 
     98 H98        22.7674   25.1407    1.4184 H         1 UNK         0.0788 
     99 H99        26.5920   23.8138    1.0455 H         1 UNK         0.2993 
    100 H100       26.5700   20.5288   -0.3481 H         1 UNK         0.0949 
    101 H101       27.5538   21.7653   -2.2644 H         1 UNK         0.0767 
    102 H102       25.8172   22.0169   -2.2029 H         1 UNK         0.0767 
    103 H103       26.9024   23.2869   -1.6544 H         1 UNK         0.0767 
    104 H104       28.5248   22.6558    0.0864 H         1 UNK         0.3013 
    105 H105       28.4629   29.7685    2.1385 H         1 UNK         0.3121 
    106 H106       29.2326   31.7349    2.7727 H         1 UNK         0.0774 
    107 H107       28.0251   33.7854    2.1629 H         1 UNK         0.0815 
    108 H108       27.3300   33.0170    0.7446 H         1 UNK         0.0815 
    109 H109       26.8703   32.4779    2.3591 H         1 UNK         0.0815 
    110 H110       30.5337   30.3741    0.4352 H         1 UNK         0.2987 
    111 H111       31.8298   32.4332   -1.1367 H         1 UNK         0.0949 
    112 H112       32.5211   29.4699   -0.7381 H         1 UNK         0.0806 
    113 H113       31.4688   30.1189   -1.9964 H         1 UNK         0.0806 
    114 H114       33.1778   30.5180   -1.9845 H         1 UNK         0.0806 
    115 H115       32.3138   31.2751    2.0415 H         1 UNK         0.3010 
    116 H116       34.6015   32.9433    2.5074 H         1 UNK         0.0829 
    117 H117       35.7500   30.7676    1.8795 H         1 UNK         0.0813 
    118 H118       35.9473   31.1096    3.5896 H         1 UNK         0.0813 
    119 H119       34.7725   29.9091    3.0664 H         1 UNK         0.0813 
    120 H120       34.8227   33.1484    4.9103 H         1 UNK         0.3038 
    121 H121       32.3506   33.5167    6.1749 H         1 UNK         0.0769 
    122 H122       35.1518   33.3446    7.4147 H         1 UNK         0.0811 
    123 H123       33.7338   34.0259    8.1993 H         1 UNK         0.0811 
    124 H124       34.3874   34.7958    6.7645 H         1 UNK         0.0811 
    125 H125       34.5134   30.7274    6.3453 H         1 UNK         0.3204 
    126 H126       33.0563   29.3520    8.4581 H         1 UNK         0.0748 
    127 H127       35.4977   28.9920    8.0874 H         1 UNK         0.0771 
    128 H128       34.6120   27.4896    7.8939 H         1 UNK         0.0771 
    129 H129       35.1750   28.3569    6.4724 H         1 UNK         0.0771 
    130 H130       32.4102   29.8487    5.1099 H         1 UNK         0.2980 
    131 H131       30.9081   27.3017    4.8153 H         1 UNK         0.0545 
    132 H132       30.0939   30.2751    5.9365 H         1 UNK         0.3459 
    133 H133       28.5221   30.4056    5.1896 H         1 UNK         0.3459 
    134 H134       32.0165   29.1495    2.6443 H         1 UNK         0.0616 
    135 H135       31.0988   27.6910    2.3611 H         1 UNK         0.0616 
    136 H136       33.5638   28.0303    0.8610 H         1 UNK         0.0634 
    137 H137       34.8004   26.8662    1.2483 H         1 UNK         0.0634 
@<TRIPOS>BOND
     1    1    2 1    
     2    1   72 1    
     3    1   73 1    
     4    1   74 1    
     5    2    3 2    
     6    2    4 am   BACKBONE|DICT|INTERRES
     7    4    5 1    
     8    4   75 1    
     9    5    6 1    
    10    5   35 1    
    11    5   76 1    
    12    6    7 1    
    13    6   77 1    
    14    6   78 1    
    15    7    8 1    
    16    8    9 1    
    17    8   79 1    
    18    8   80 1    
    19    9   10 ar   
    20    9   14 ar   
    21   10   11 ar   
    22   10   81 1    
    23   11   12 ar   
    24   11   71 1    
    25   12   13 ar   
    26   12   82 1    
    27   13   14 ar   
    28   13   15 1    
    29   14   83 1    
    30   15   16 1    
    31   15   84 1    
    32   15   85 1    
    33   16   17 1    
    34   17   18 1    
    35   17   86 1    
    36   17   87 1    
    37   18   19 1    
    38   18   37 1    
    39   18   88 1    
    40   19   20 am   BACKBONE|DICT|INTERRES
    41   19   89 1    
    42   20   21 2    
    43   20   22 1    
    44   22   23 1    
    45   22   24 1    
    46   22   90 1    
    47   23   91 1    
    48   23   92 1    
    49   23   93 1    
    50   24   25 am   BACKBONE|DICT|INTERRES
    51   24   94 1    
    52   25   26 2    
    53   25   27 1    
    54   27   28 1    
    55   27   29 1    
    56   27   95 1    
    57   28   96 1    
    58   28   97 1    
    59   28   98 1    
    60   29   30 am   BACKBONE|DICT|INTERRES
    61   29   99 1    
    62   30   31 2    
    63   30   32 1    
    64   32   33 1    
    65   32   34 1    
    66   32  100 1    
    67   33  101 1    
    68   33  102 1    
    69   33  103 1    
    70   34   35 am   BACKBONE|DICT|INTERRES
    71   34  104 1    
    72   35   36 2    
    73   37   38 2    
    74   37   39 am   BACKBONE|DICT|INTERRES
    75   39   40 1    
    76   39  105 1    
    77   40   41 1    
    78   40   42 1    
    79   40  106 1    
    80   41  107 1    
    81   41  108 1    
    82   41  109 1    
    83   42   43 2    
    84   42   44 am   BACKBONE|DICT|INTERRES
    85   44   45 1    
    86   44  110 1    
    87   45   46 1    
    88   45   47 1    
    89   45  111 1    
    90   46  112 1    
    91   46  113 1    
    92   46  114 1    
    93   47   48 2    
    94   47   49 am   BACKBONE|DICT|INTERRES
    95   49   50 1    
    96   49  115 1    
    97   50   51 1    
    98   50   52 1    
    99   50  116 1    
   100   51  117 1    
   101   51  118 1    
   102   51  119 1    
   103   52   53 2    
   104   52   54 am   BACKBONE|DICT|INTERRES
   105   54   55 1    
   106   54  120 1    
   107   55   56 1    
   108   55   57 1    
   109   55  121 1    
   110   56  122 1    
   111   56  123 1    
   112   56  124 1    
   113   57   58 2    
   114   57   59 am   BACKBONE|DICT|INTERRES
   115   59   60 1    
   116   59  125 1    
   117   60   61 1    
   118   60   62 1    
   119   60  126 1    
   120   61  127 1    
   121   61  128 1    
   122   61  129 1    
   123   62   63 2    
   124   62   64 am   BACKBONE|DICT|INTERRES
   125   64   65 1    
   126   64  130 1    
   127   65   66 1    
   128   65   69 1    
   129   65  131 1    
   130   66   67 am   BACKBONE|DICT|INTERRES
   131   66   68 2    
   132   67  132 1    
   133   67  133 1    
   134   69   70 1    
   135   69  134 1    
   136   69  135 1    
   137   70   71 1    
   138   71  136 1    
   139   71  137 1    
@<TRIPOS>SUBSTRUCTURE
     1 UNK         1 GROUP             0       ****    0 ROOT    
