@<TRIPOS>MOLECULE
3R136
137   139    1
SMALL
USER_CHARGES


@<TRIPOS>ATOM
      1 CA         29.2342   22.5883   -3.6539 C.3       0 UNK        -0.1979 
      2 C          29.0324   22.9326   -2.1871 C.2       0 UNK         0.4864 
      3 O          28.5303   24.0153   -1.8791 O.2       0 UNK        -0.5359 
      4 N          29.3986   22.0172   -1.2791 N.am      1 UNK        -0.4318 
      5 CA         29.3570   22.1438    0.1883 C.3       1 UNK         0.0824 
      6 C6         30.2752   21.0884    0.8551 C.3       12 UNK        -0.0944 
      7 S7         32.0312   21.4407    0.5104 S.3       12 UNK        -0.2672 
      8 C8         32.6293   21.9766    2.1456 C.3       12 UNK         0.0333 
      9 C9         31.9797   23.2712    2.6214 C.ar      12 UNK        -0.0807 
     10 C10        32.4629   24.5057    2.1806 C.ar      12 UNK        -0.0894 
     11 C11        31.9342   25.6998    2.6847 C.ar      12 UNK        -0.0804 
     12 C12        30.8945   25.6452    3.6185 C.ar      12 UNK        -0.0824 
     13 C13        30.3555   24.4177    4.0250 C.ar      12 UNK        -0.0762 
     14 C14        30.9218   23.2371    3.5348 C.ar      12 UNK        -0.0782 
     15 C15        29.1928   24.3100    5.0156 C.3       12 UNK         0.0230 
     16 S16        28.0849   25.7614    5.1218 S.3       12 UNK        -0.2608 
     17 C17        27.3852   25.8749    3.4382 C.3       12 UNK        -0.0989 
     18 CA         27.7923   27.1995    2.7360 C.3       5 UNK         0.0716 
     19 N          28.0994   26.9955    1.3196 N.am      5 UNK        -0.4135 
     20 C          28.8473   27.8114    0.5636 C.2       4 UNK         0.5031 
     21 O          29.3856   28.8319    0.9902 O.2       4 UNK        -0.5229 
     22 CA         28.9627   27.4601   -0.9297 C.3       4 UNK         0.0329 
     23 CB         30.2565   26.6756   -1.1985 C.3       4 UNK        -0.2001 
     24 N          27.8134   26.6940   -1.4246 N.am      4 UNK        -0.4303 
     25 C          26.5639   27.1749   -1.5158 C.2       3 UNK         0.5044 
     26 O          26.2568   28.3283   -1.2184 O.2       3 UNK        -0.5152 
     27 CA         25.4654   26.1876   -1.9425 C.3       3 UNK         0.0319 
     28 CB         25.5079   25.9492   -3.4604 C.3       3 UNK        -0.2001 
     29 N          25.5621   24.9047   -1.2420 N.am      3 UNK        -0.4354 
     30 C          25.3999   24.7319    0.0795 C.2       2 UNK         0.4964 
     31 O          25.1039   25.6325    0.8632 O.2       2 UNK        -0.5047 
     32 CA         25.7190   23.3366    0.6218 C.3       2 UNK         0.0288 
     33 CB         24.7165   22.2762    0.1299 C.3       2 UNK        -0.2113 
     34 N          27.0775   23.0110    0.2085 N.am      2 UNK        -0.4145 
     35 C          27.9205   22.1437    0.7683 C.2       1 UNK         0.5006 
     36 O          27.6112   21.3969    1.6987 O.2       1 UNK        -0.5103 
     37 C          26.8012   28.3605    2.9915 C.2       5 UNK         0.5055 
     38 O          26.6204   28.7482    4.1457 O.2       5 UNK        -0.5220 
     39 N          26.2315   28.9630    1.9338 N.am      6 UNK        -0.4450 
     40 CA         25.5509   30.2610    2.0104 C.3       6 UNK         0.0367 
     41 CB         24.7924   30.5252    0.7008 C.3       6 UNK        -0.1929 
     42 C          26.5198   31.4236    2.3151 C.2       6 UNK         0.5070 
     43 O          26.0766   32.4569    2.8160 O.2       6 UNK        -0.5237 
     44 N          27.8164   31.2317    2.0328 N.am      7 UNK        -0.4739 
     45 CA         28.9093   32.1474    2.3510 C.3       7 UNK         0.0276 
     46 CB         29.4656   32.7399    1.0427 C.3       7 UNK        -0.1927 
     47 C          29.9767   31.3929    3.1616 C.2       7 UNK         0.5013 
     48 O          31.1654   31.4861    2.8509 O.2       7 UNK        -0.5193 
     49 N          29.5324   30.6531    4.1924 N.am      8 UNK        -0.4253 
     50 CA         30.3392   29.7572    5.0358 C.3       8 UNK         0.0242 
     51 CB         29.4691   29.1919    6.1690 C.3       8 UNK        -0.2000 
     52 C          31.6183   30.3732    5.6271 C.2       8 UNK         0.4948 
     53 O          32.6077   29.6594    5.7840 O.2       8 UNK        -0.5275 
     54 N          31.5932   31.6866    5.8960 N.am      9 UNK        -0.4246 
     55 CA         32.7291   32.4865    6.3639 C.3       9 UNK         0.0261 
     56 CB         32.2458   33.9166    6.6563 C.3       9 UNK        -0.1959 
     57 C          33.9380   32.5124    5.4059 C.2       9 UNK         0.5033 
     58 O          35.0421   32.8216    5.8567 O.2       9 UNK        -0.5390 
     59 N          33.7315   32.1857    4.1204 N.am      10 UNK        -0.4215 
     60 CA         34.8028   32.0115    3.1366 C.3       10 UNK         0.0240 
     61 CB         34.2041   32.0587    1.7210 C.3       10 UNK        -0.1982 
     62 C          35.6028   30.7089    3.3339 C.2       10 UNK         0.4970 
     63 O          36.7326   30.6329    2.8482 O.2       10 UNK        -0.4916 
     64 N          35.0167   29.7172    4.0171 N.am      11 UNK        -0.4279 
     65 CA         35.6269   28.4148    4.3143 C.3       11 UNK         0.1003 
     66 C          36.1514   28.3467    5.7746 C.2       11 UNK         0.5709 
     67 N          36.9251   27.3203    6.1032 N.am      11 UNK        -0.7358 
     68 O          35.8776   29.2024    6.6147 O.2       11 UNK        -0.4999 
     69 C69        34.6478   27.2529    3.9952 C.3       12 UNK        -0.0954 
     70 S70        34.2760   27.1635    2.2113 S.3       12 UNK        -0.2268 
     71 C71        32.4575   27.0514    2.2051 C.3       12 UNK         0.0203 
     72 H72        29.6807   21.6028   -3.7844 H         1 UNK         0.0888 
     73 H73        28.2782   22.6016   -4.1763 H         1 UNK         0.0888 
     74 H74        29.8888   23.3230   -4.1218 H         1 UNK         0.0888 
     75 H75        29.7875   21.1458   -1.6101 H         1 UNK         0.3017 
     76 H76        29.7591   23.1286    0.4390 H         1 UNK         0.0873 
     77 H77        30.1310   21.0494    1.9348 H         1 UNK         0.0745 
     78 H78        30.0372   20.0871    0.4920 H         1 UNK         0.0745 
     79 H79        33.7104   22.1139    2.0925 H         1 UNK         0.0705 
     80 H80        32.4648   21.1765    2.8691 H         1 UNK         0.0705 
     81 H81        33.2692   24.5356    1.4606 H         1 UNK         0.1334 
     82 H82        30.5038   26.5642    4.0259 H         1 UNK         0.1417 
     83 H83        30.5424   22.2841    3.8778 H         1 UNK         0.1562 
     84 H84        29.6067   24.1250    6.0076 H         1 UNK         0.0748 
     85 H85        28.5808   23.4398    4.7716 H         1 UNK         0.0748 
     86 H86        26.3001   25.7641    3.4899 H         1 UNK         0.0940 
     87 H87        27.7365   25.0125    2.8694 H         1 UNK         0.0940 
     88 H88        28.7245   27.5470    3.1818 H         1 UNK         0.0703 
     89 H89        27.6489   26.2130    0.8710 H         1 UNK         0.3081 
     90 H90        29.0062   28.3971   -1.4890 H         1 UNK         0.0719 
     91 H91        30.3127   25.7657   -0.5988 H         1 UNK         0.0809 
     92 H92        30.3377   26.3895   -2.2474 H         1 UNK         0.0809 
     93 H93        31.1324   27.2803   -0.9623 H         1 UNK         0.0809 
     94 H94        27.9959   25.7267   -1.6901 H         1 UNK         0.2990 
     95 H95        24.5007   26.6345   -1.6926 H         1 UNK         0.0690 
     96 H96        26.4370   25.4681   -3.7699 H         1 UNK         0.0788 
     97 H97        25.4306   26.8913   -4.0052 H         1 UNK         0.0788 
     98 H98        24.6794   25.3199   -3.7860 H         1 UNK         0.0788 
     99 H99        25.8071   24.1059   -1.8092 H         1 UNK         0.2993 
    100 H100       25.6822   23.3811    1.7127 H         1 UNK         0.0949 
    101 H101       24.7532   22.1486   -0.9525 H         1 UNK         0.0767 
    102 H102       24.9157   21.3056    0.5847 H         1 UNK         0.0767 
    103 H103       23.6953   22.5533    0.3946 H         1 UNK         0.0767 
    104 H104       27.4601   23.5599   -0.5611 H         1 UNK         0.3013 
    105 H105       26.3863   28.5901    1.0047 H         1 UNK         0.3121 
    106 H106       24.8222   30.2152    2.8227 H         1 UNK         0.0774 
    107 H107       24.2002   31.4384    0.7727 H         1 UNK         0.0815 
    108 H108       25.4737   30.6471   -0.1420 H         1 UNK         0.0815 
    109 H109       24.1070   29.7110    0.4646 H         1 UNK         0.0815 
    110 H110       28.1094   30.3431    1.6378 H         1 UNK         0.2987 
    111 H111       28.5566   32.9678    2.9796 H         1 UNK         0.0949 
    112 H112       29.8706   31.9633    0.3923 H         1 UNK         0.0806 
    113 H113       28.6925   33.2724    0.4889 H         1 UNK         0.0806 
    114 H114       30.2683   33.4507    1.2437 H         1 UNK         0.0806 
    115 H115       28.5355   30.6379    4.3596 H         1 UNK         0.3010 
    116 H116       30.6515   28.9288    4.3996 H         1 UNK         0.0829 
    117 H117       30.0401   28.5050    6.7957 H         1 UNK         0.0813 
    118 H118       29.0840   29.9812    6.8155 H         1 UNK         0.0813 
    119 H119       28.6195   28.6330    5.7822 H         1 UNK         0.0813 
    120 H120       30.7320   32.1843    5.7240 H         1 UNK         0.3038 
    121 H121       33.0748   32.0423    7.2997 H         1 UNK         0.0769 
    122 H122       33.0601   34.5335    7.0395 H         1 UNK         0.0811 
    123 H123       31.4564   33.9247    7.4081 H         1 UNK         0.0811 
    124 H124       31.8630   34.4042    5.7588 H         1 UNK         0.0811 
    125 H125       32.7905   31.9541    3.8084 H         1 UNK         0.3204 
    126 H126       35.5005   32.8455    3.2374 H         1 UNK         0.0748 
    127 H127       34.9879   32.0108    0.9639 H         1 UNK         0.0771 
    128 H128       33.5278   31.2214    1.5420 H         1 UNK         0.0771 
    129 H129       33.6467   32.9807    1.5542 H         1 UNK         0.0771 
    130 H130       34.1241   29.8804    4.4705 H         1 UNK         0.2980 
    131 H131       36.5062   28.2824    3.6811 H         1 UNK         0.0545 
    132 H132       37.1673   26.6114    5.4286 H         1 UNK         0.3459 
    133 H133       37.2777   27.2565    7.0454 H         1 UNK         0.3459 
    134 H134       35.0718   26.2896    4.2830 H         1 UNK         0.0616 
    135 H135       33.7238   27.3624    4.5659 H         1 UNK         0.0616 
    136 H136       32.1066   27.2147    1.1870 H         1 UNK         0.0634 
    137 H137       32.0519   27.8699    2.8007 H         1 UNK         0.0634 
@<TRIPOS>BOND
     1    1    2 1    
     2    1   72 1    
     3    1   73 1    
     4    1   74 1    
     5    2    3 2    
     6    2    4 am   BACKBONE|DICT|INTERRES
     7    4    5 1    
     8    4   75 1    
     9    5    6 1    
    10    5   35 1    
    11    5   76 1    
    12    6    7 1    
    13    6   77 1    
    14    6   78 1    
    15    7    8 1    
    16    8    9 1    
    17    8   79 1    
    18    8   80 1    
    19    9   10 ar   
    20    9   14 ar   
    21   10   11 ar   
    22   10   81 1    
    23   11   12 ar   
    24   11   71 1    
    25   12   13 ar   
    26   12   82 1    
    27   13   14 ar   
    28   13   15 1    
    29   14   83 1    
    30   15   16 1    
    31   15   84 1    
    32   15   85 1    
    33   16   17 1    
    34   17   18 1    
    35   17   86 1    
    36   17   87 1    
    37   18   19 1    
    38   18   37 1    
    39   18   88 1    
    40   19   20 am   BACKBONE|DICT|INTERRES
    41   19   89 1    
    42   20   21 2    
    43   20   22 1    
    44   22   23 1    
    45   22   24 1    
    46   22   90 1    
    47   23   91 1    
    48   23   92 1    
    49   23   93 1    
    50   24   25 am   BACKBONE|DICT|INTERRES
    51   24   94 1    
    52   25   26 2    
    53   25   27 1    
    54   27   28 1    
    55   27   29 1    
    56   27   95 1    
    57   28   96 1    
    58   28   97 1    
    59   28   98 1    
    60   29   30 am   BACKBONE|DICT|INTERRES
    61   29   99 1    
    62   30   31 2    
    63   30   32 1    
    64   32   33 1    
    65   32   34 1    
    66   32  100 1    
    67   33  101 1    
    68   33  102 1    
    69   33  103 1    
    70   34   35 am   BACKBONE|DICT|INTERRES
    71   34  104 1    
    72   35   36 2    
    73   37   38 2    
    74   37   39 am   BACKBONE|DICT|INTERRES
    75   39   40 1    
    76   39  105 1    
    77   40   41 1    
    78   40   42 1    
    79   40  106 1    
    80   41  107 1    
    81   41  108 1    
    82   41  109 1    
    83   42   43 2    
    84   42   44 am   BACKBONE|DICT|INTERRES
    85   44   45 1    
    86   44  110 1    
    87   45   46 1    
    88   45   47 1    
    89   45  111 1    
    90   46  112 1    
    91   46  113 1    
    92   46  114 1    
    93   47   48 2    
    94   47   49 am   BACKBONE|DICT|INTERRES
    95   49   50 1    
    96   49  115 1    
    97   50   51 1    
    98   50   52 1    
    99   50  116 1    
   100   51  117 1    
   101   51  118 1    
   102   51  119 1    
   103   52   53 2    
   104   52   54 am   BACKBONE|DICT|INTERRES
   105   54   55 1    
   106   54  120 1    
   107   55   56 1    
   108   55   57 1    
   109   55  121 1    
   110   56  122 1    
   111   56  123 1    
   112   56  124 1    
   113   57   58 2    
   114   57   59 am   BACKBONE|DICT|INTERRES
   115   59   60 1    
   116   59  125 1    
   117   60   61 1    
   118   60   62 1    
   119   60  126 1    
   120   61  127 1    
   121   61  128 1    
   122   61  129 1    
   123   62   63 2    
   124   62   64 am   BACKBONE|DICT|INTERRES
   125   64   65 1    
   126   64  130 1    
   127   65   66 1    
   128   65   69 1    
   129   65  131 1    
   130   66   67 am   BACKBONE|DICT|INTERRES
   131   66   68 2    
   132   67  132 1    
   133   67  133 1    
   134   69   70 1    
   135   69  134 1    
   136   69  135 1    
   137   70   71 1    
   138   71  136 1    
   139   71  137 1    
@<TRIPOS>SUBSTRUCTURE
     1 UNK         1 GROUP             0       ****    0 ROOT    
