@<TRIPOS>MOLECULE
3R136
137   139    1
SMALL
USER_CHARGES


@<TRIPOS>ATOM
      1 CA         31.9641   19.0941    2.0878 C.3       0 UNK        -0.1979 
      2 C          31.4338   19.7011    0.7972 C.2       0 UNK         0.4864 
      3 O          31.0026   18.9647   -0.0909 O.2       0 UNK        -0.5359 
      4 N          31.4723   21.0356    0.6881 N.am      1 UNK        -0.4318 
      5 CA         30.9642   21.8187   -0.4442 C.3       1 UNK         0.0824 
      6 C6         31.4499   23.2954   -0.4045 C.3       12 UNK        -0.0944 
      7 S7         31.2869   24.0897    1.2359 S.3       12 UNK        -0.2672 
      8 C8         30.0429   25.3813    0.9276 C.3       12 UNK         0.0333 
      9 C9         29.4992   25.9132    2.2448 C.ar      12 UNK        -0.0807 
     10 C10        30.2899   26.7428    3.0455 C.ar      12 UNK        -0.0894 
     11 C11        29.8111   27.2147    4.2707 C.ar      12 UNK        -0.0804 
     12 C12        28.5179   26.8775    4.6807 C.ar      12 UNK        -0.0824 
     13 C13        27.7093   26.0639    3.8803 C.ar      12 UNK        -0.0762 
     14 C14        28.2120   25.5717    2.6708 C.ar      12 UNK        -0.0782 
     15 C15        26.2817   25.7477    4.3052 C.3       12 UNK         0.0230 
     16 S16        25.0530   26.4283    3.1414 S.3       12 UNK        -0.2608 
     17 C17        25.3733   28.2285    3.2315 C.3       12 UNK        -0.0989 
     18 CA         26.4392   28.7082    2.2112 C.3       5 UNK         0.0716 
     19 N          26.1681   28.2355    0.8474 N.am      5 UNK        -0.4135 
     20 C          27.0706   28.1507   -0.1367 C.2       4 UNK         0.5031 
     21 O          28.2118   28.6028   -0.0415 O.2       4 UNK        -0.5229 
     22 CA         26.6173   27.4607   -1.4375 C.3       4 UNK         0.0329 
     23 CB         27.7700   27.3002   -2.4465 C.3       4 UNK        -0.2001 
     24 N          26.0243   26.1438   -1.1934 N.am      4 UNK        -0.4303 
     25 C          24.7959   25.8914   -0.7303 C.2       3 UNK         0.5044 
     26 O          24.0005   26.7782   -0.4167 O.2       3 UNK        -0.5152 
     27 CA         24.3758   24.4154   -0.5845 C.3       3 UNK         0.0319 
     28 CB         23.9735   23.8274   -1.9509 C.3       3 UNK        -0.2001 
     29 N          25.3306   23.5325    0.1089 N.am      3 UNK        -0.4354 
     30 C          26.5775   23.1864   -0.2456 C.2       2 UNK         0.4964 
     31 O          27.1672   23.6619   -1.2176 O.2       2 UNK        -0.5047 
     32 CA         27.2598   22.1382    0.6594 C.3       2 UNK         0.0288 
     33 CB         26.6220   20.7450    0.4776 C.3       2 UNK        -0.2113 
     34 N          28.7200   22.0673    0.4985 N.am      2 UNK        -0.4145 
     35 C          29.4319   21.7078   -0.5831 C.2       1 UNK         0.5006 
     36 O          28.9515   21.2864   -1.6375 O.2       1 UNK        -0.5103 
     37 C          26.7154   30.2230    2.3191 C.2       5 UNK         0.5055 
     38 O          27.0863   30.6922    3.3961 O.2       5 UNK        -0.5220 
     39 N          26.5852   30.9560    1.2041 N.am      6 UNK        -0.4450 
     40 CA         27.0832   32.3215    1.0379 C.3       6 UNK         0.0367 
     41 CB         26.5101   32.9138   -0.2593 C.3       6 UNK        -0.1929 
     42 C          28.6232   32.4011    1.0307 C.2       6 UNK         0.5070 
     43 O          29.1657   33.4596    1.3503 O.2       6 UNK        -0.5237 
     44 N          29.3131   31.2963    0.7010 N.am      7 UNK        -0.4739 
     45 CA         30.7751   31.1714    0.7038 C.3       7 UNK         0.0276 
     46 CB         31.1823   30.0019   -0.2123 C.3       7 UNK        -0.1927 
     47 C          31.3470   31.0198    2.1282 C.2       7 UNK         0.5013 
     48 O          32.1000   30.0823    2.3981 O.2       7 UNK        -0.5193 
     49 N          30.9987   31.9607    3.0171 N.am      8 UNK        -0.4253 
     50 CA         31.3757   31.9977    4.4352 C.3       8 UNK         0.0242 
     51 CB         30.7402   33.2287    5.0984 C.3       8 UNK        -0.2000 
     52 C          32.8921   31.9693    4.6909 C.2       8 UNK         0.4948 
     53 O          33.3187   31.4422    5.7178 O.2       8 UNK        -0.5275 
     54 N          33.6816   32.4729    3.7317 N.am      9 UNK        -0.4246 
     55 CA         35.1455   32.4169    3.7169 C.3       9 UNK         0.0261 
     56 CB         35.6657   33.2033    2.5026 C.3       9 UNK        -0.1959 
     57 C          35.7282   30.9892    3.7217 C.2       9 UNK         0.5033 
     58 O          36.8660   30.8188    4.1617 O.2       9 UNK        -0.5390 
     59 N          34.9576   29.9916    3.2580 N.am      10 UNK        -0.4215 
     60 CA         35.3280   28.5758    3.3351 C.3       10 UNK         0.0240 
     61 CB         34.4998   27.7717    2.3202 C.3       10 UNK        -0.1982 
     62 C          35.1592   27.9933    4.7508 C.2       10 UNK         0.4970 
     63 O          35.8455   27.0247    5.0794 O.2       10 UNK        -0.4916 
     64 N          34.2622   28.5804    5.5535 N.am      11 UNK        -0.4279 
     65 CA         34.0153   28.2057    6.9522 C.3       11 UNK         0.1003 
     66 C          34.8675   29.0501    7.9352 C.2       11 UNK         0.5709 
     67 N          35.0339   30.3463    7.7036 N.am      11 UNK        -0.7358 
     68 O          35.3905   28.5210    8.9131 O.2       11 UNK        -0.4999 
     69 C69        32.5096   28.2941    7.3090 C.3       12 UNK        -0.0954 
     70 S70        31.5217   27.0520    6.4132 S.3       12 UNK        -0.2268 
     71 C71        30.6946   28.0750    5.1592 C.3       12 UNK         0.0203 
     72 H72        32.3195   19.8561    2.7813 H         1 UNK         0.0888 
     73 H73        32.7921   18.4192    1.8727 H         1 UNK         0.0888 
     74 H74        31.1792   18.5240    2.5841 H         1 UNK         0.0888 
     75 H75        31.8438   21.5862    1.4501 H         1 UNK         0.3017 
     76 H76        31.3840   21.3717   -1.3484 H         1 UNK         0.0873 
     77 H77        30.9491   23.8955   -1.1673 H         1 UNK         0.0745 
     78 H78        32.5087   23.3253   -0.6663 H         1 UNK         0.0745 
     79 H79        30.4927   26.1955    0.3570 H         1 UNK         0.0705 
     80 H80        29.2349   24.9817    0.3131 H         1 UNK         0.0705 
     81 H81        31.2872   27.0034    2.7213 H         1 UNK         0.1334 
     82 H82        28.1424   27.2541    5.6225 H         1 UNK         0.1417 
     83 H83        27.5853   24.9474    2.0510 H         1 UNK         0.1562 
     84 H84        26.0753   26.1307    5.3059 H         1 UNK         0.0748 
     85 H85        26.1570   24.6654    4.3587 H         1 UNK         0.0748 
     86 H86        25.6737   28.4821    4.2501 H         1 UNK         0.0940 
     87 H87        24.4277   28.7453    3.0581 H         1 UNK         0.0940 
     88 H88        27.3905   28.2620    2.4948 H         1 UNK         0.0703 
     89 H89        25.2504   27.8331    0.6800 H         1 UNK         0.3081 
     90 H90        25.8604   28.1021   -1.8934 H         1 UNK         0.0719 
     91 H91        28.5678   26.6720   -2.0474 H         1 UNK         0.0809 
     92 H92        27.4235   26.8511   -3.3773 H         1 UNK         0.0809 
     93 H93        28.2096   28.2663   -2.6986 H         1 UNK         0.0809 
     94 H94        26.6130   25.3317   -1.3753 H         1 UNK         0.2990 
     95 H95        23.4812   24.4164    0.0406 H         1 UNK         0.0690 
     96 H96        23.5657   22.8221   -1.8445 H         1 UNK         0.0788 
     97 H97        24.8188   23.7741   -2.6379 H         1 UNK         0.0788 
     98 H98        23.2063   24.4387   -2.4282 H         1 UNK         0.0788 
     99 H99        24.9601   23.1109    0.9498 H         1 UNK         0.2993 
    100 H100       27.0938   22.4511    1.6915 H         1 UNK         0.0949 
    101 H101       25.5652   20.7548    0.7469 H         1 UNK         0.0767 
    102 H102       26.6870   20.3991   -0.5545 H         1 UNK         0.0767 
    103 H103       27.1078   20.0016    1.1099 H         1 UNK         0.0767 
    104 H104       29.2544   22.4079    1.2862 H         1 UNK         0.3013 
    105 H105       26.2664   30.4856    0.3701 H         1 UNK         0.3121 
    106 H106       26.7260   32.9204    1.8785 H         1 UNK         0.0774 
    107 H107       25.4201   32.9255   -0.2438 H         1 UNK         0.0815 
    108 H108       26.8295   32.3508   -1.1373 H         1 UNK         0.0815 
    109 H109       26.8411   33.9444   -0.3957 H         1 UNK         0.0815 
    110 H110       28.8035   30.4455    0.4786 H         1 UNK         0.2987 
    111 H111       31.2016   32.0846    0.2833 H         1 UNK         0.0949 
    112 H112       30.8388   29.0443    0.1818 H         1 UNK         0.0806 
    113 H113       30.7711   30.1176   -1.2152 H         1 UNK         0.0806 
    114 H114       32.2669   29.9410   -0.3105 H         1 UNK         0.0806 
    115 H115       30.3754   32.6917    2.6858 H         1 UNK         0.3010 
    116 H116       30.9558   31.1054    4.9023 H         1 UNK         0.0829 
    117 H117       29.6531   33.2056    5.0169 H         1 UNK         0.0813 
    118 H118       30.9831   33.2693    6.1613 H         1 UNK         0.0813 
    119 H119       31.0915   34.1574    4.6468 H         1 UNK         0.0813 
    120 H120       33.2361   32.8838    2.9244 H         1 UNK         0.3038 
    121 H121       35.4995   32.9114    4.6240 H         1 UNK         0.0769 
    122 H122       35.3210   32.7698    1.5629 H         1 UNK         0.0811 
    123 H123       36.7565   33.2073    2.4784 H         1 UNK         0.0811 
    124 H124       35.3417   34.2438    2.5335 H         1 UNK         0.0811 
    125 H125       34.0229   30.1962    2.9135 H         1 UNK         0.3204 
    126 H126       36.3808   28.4777    3.0613 H         1 UNK         0.0748 
    127 H127       34.6259   28.1563    1.3081 H         1 UNK         0.0771 
    128 H128       34.8030   26.7239    2.3109 H         1 UNK         0.0771 
    129 H129       33.4373   27.7991    2.5588 H         1 UNK         0.0771 
    130 H130       33.7947   29.4198    5.2389 H         1 UNK         0.2980 
    131 H131       34.3178   27.1667    7.0991 H         1 UNK         0.0545 
    132 H132       35.5921   30.8959    8.3363 H         1 UNK         0.3459 
    133 H133       34.5308   30.7972    6.9433 H         1 UNK         0.3459 
    134 H134       32.3590   28.1109    8.3746 H         1 UNK         0.0616 
    135 H135       32.1192   29.2948    7.1149 H         1 UNK         0.0616 
    136 H136       31.4462   28.5929    4.5623 H         1 UNK         0.0634 
    137 H137       30.0956   28.8438    5.6494 H         1 UNK         0.0634 
@<TRIPOS>BOND
     1    1    2 1    
     2    1   72 1    
     3    1   73 1    
     4    1   74 1    
     5    2    3 2    
     6    2    4 am   BACKBONE|DICT|INTERRES
     7    4    5 1    
     8    4   75 1    
     9    5    6 1    
    10    5   35 1    
    11    5   76 1    
    12    6    7 1    
    13    6   77 1    
    14    6   78 1    
    15    7    8 1    
    16    8    9 1    
    17    8   79 1    
    18    8   80 1    
    19    9   10 ar   
    20    9   14 ar   
    21   10   11 ar   
    22   10   81 1    
    23   11   12 ar   
    24   11   71 1    
    25   12   13 ar   
    26   12   82 1    
    27   13   14 ar   
    28   13   15 1    
    29   14   83 1    
    30   15   16 1    
    31   15   84 1    
    32   15   85 1    
    33   16   17 1    
    34   17   18 1    
    35   17   86 1    
    36   17   87 1    
    37   18   19 1    
    38   18   37 1    
    39   18   88 1    
    40   19   20 am   BACKBONE|DICT|INTERRES
    41   19   89 1    
    42   20   21 2    
    43   20   22 1    
    44   22   23 1    
    45   22   24 1    
    46   22   90 1    
    47   23   91 1    
    48   23   92 1    
    49   23   93 1    
    50   24   25 am   BACKBONE|DICT|INTERRES
    51   24   94 1    
    52   25   26 2    
    53   25   27 1    
    54   27   28 1    
    55   27   29 1    
    56   27   95 1    
    57   28   96 1    
    58   28   97 1    
    59   28   98 1    
    60   29   30 am   BACKBONE|DICT|INTERRES
    61   29   99 1    
    62   30   31 2    
    63   30   32 1    
    64   32   33 1    
    65   32   34 1    
    66   32  100 1    
    67   33  101 1    
    68   33  102 1    
    69   33  103 1    
    70   34   35 am   BACKBONE|DICT|INTERRES
    71   34  104 1    
    72   35   36 2    
    73   37   38 2    
    74   37   39 am   BACKBONE|DICT|INTERRES
    75   39   40 1    
    76   39  105 1    
    77   40   41 1    
    78   40   42 1    
    79   40  106 1    
    80   41  107 1    
    81   41  108 1    
    82   41  109 1    
    83   42   43 2    
    84   42   44 am   BACKBONE|DICT|INTERRES
    85   44   45 1    
    86   44  110 1    
    87   45   46 1    
    88   45   47 1    
    89   45  111 1    
    90   46  112 1    
    91   46  113 1    
    92   46  114 1    
    93   47   48 2    
    94   47   49 am   BACKBONE|DICT|INTERRES
    95   49   50 1    
    96   49  115 1    
    97   50   51 1    
    98   50   52 1    
    99   50  116 1    
   100   51  117 1    
   101   51  118 1    
   102   51  119 1    
   103   52   53 2    
   104   52   54 am   BACKBONE|DICT|INTERRES
   105   54   55 1    
   106   54  120 1    
   107   55   56 1    
   108   55   57 1    
   109   55  121 1    
   110   56  122 1    
   111   56  123 1    
   112   56  124 1    
   113   57   58 2    
   114   57   59 am   BACKBONE|DICT|INTERRES
   115   59   60 1    
   116   59  125 1    
   117   60   61 1    
   118   60   62 1    
   119   60  126 1    
   120   61  127 1    
   121   61  128 1    
   122   61  129 1    
   123   62   63 2    
   124   62   64 am   BACKBONE|DICT|INTERRES
   125   64   65 1    
   126   64  130 1    
   127   65   66 1    
   128   65   69 1    
   129   65  131 1    
   130   66   67 am   BACKBONE|DICT|INTERRES
   131   66   68 2    
   132   67  132 1    
   133   67  133 1    
   134   69   70 1    
   135   69  134 1    
   136   69  135 1    
   137   70   71 1    
   138   71  136 1    
   139   71  137 1    
@<TRIPOS>SUBSTRUCTURE
     1 UNK         1 GROUP             0       ****    0 ROOT    
