@<TRIPOS>MOLECULE
3R136
137   139    1
SMALL
USER_CHARGES


@<TRIPOS>ATOM
      1 CA         25.0143   25.3212    3.7053 C.3       0 UNK        -0.1979 
      2 C          25.5554   23.9676    3.2704 C.2       0 UNK         0.4864 
      3 O          25.0764   22.9359    3.7439 O.2       0 UNK        -0.5359 
      4 N          26.5528   23.9674    2.3763 N.am      1 UNK        -0.4318 
      5 CA         27.1359   22.7645    1.7710 C.3       1 UNK         0.0824 
      6 C6         28.5890   23.0258    1.2814 C.3       12 UNK        -0.0944 
      7 S7         29.7623   21.7329    1.8150 S.3       12 UNK        -0.2672 
      8 C8         30.0056   22.1081    3.5870 C.3       12 UNK         0.0333 
      9 C9         30.5553   23.5086    3.8207 C.ar      12 UNK        -0.0807 
     10 C10        31.9259   23.7653    3.7073 C.ar      12 UNK        -0.0894 
     11 C11        32.4191   25.0613    3.8943 C.ar      12 UNK        -0.0804 
     12 C12        31.5316   26.1032    4.1759 C.ar      12 UNK        -0.0824 
     13 C13        30.1607   25.8588    4.2827 C.ar      12 UNK        -0.0762 
     14 C14        29.6833   24.5542    4.1384 C.ar      12 UNK        -0.0782 
     15 C15        29.1915   27.0110    4.5034 C.3       12 UNK         0.0230 
     16 S16        28.0713   27.2335    3.0823 S.3       12 UNK        -0.2608 
     17 C17        29.2460   27.3074    1.6794 C.3       12 UNK        -0.0989 
     18 CA         28.7047   28.0418    0.4208 C.3       5 UNK         0.0716 
     19 N          27.4248   27.5207   -0.0514 N.am      5 UNK        -0.4135 
     20 C          27.2545   26.3409   -0.6542 C.2       4 UNK         0.5031 
     21 O          28.1774   25.5478   -0.8547 O.2       4 UNK        -0.5229 
     22 CA         25.8112   25.9661   -1.0517 C.3       4 UNK         0.0329 
     23 CB         25.0494   27.1260   -1.7318 C.3       4 UNK        -0.2001 
     24 N          25.7561   24.7404   -1.8612 N.am      4 UNK        -0.4303 
     25 C          26.2351   24.5521   -3.1030 C.2       3 UNK         0.5044 
     26 O          26.6914   25.4533   -3.8092 O.2       3 UNK        -0.5152 
     27 CA         26.2141   23.1074   -3.6398 C.3       3 UNK         0.0319 
     28 CB         27.2747   22.8621   -4.7303 C.3       3 UNK        -0.2001 
     29 N          26.4176   22.1496   -2.5508 N.am      3 UNK        -0.4354 
     30 C          25.6074   21.1254   -2.2551 C.2       2 UNK         0.4964 
     31 O          24.6290   20.8068   -2.9319 O.2       2 UNK        -0.5047 
     32 CA         25.9213   20.3244   -0.9744 C.3       2 UNK         0.0288 
     33 CB         26.7128   19.0527   -1.3216 C.3       2 UNK        -0.2113 
     34 N          26.6402   21.0635    0.0742 N.am      2 UNK        -0.4145 
     35 C          26.2316   22.2036    0.6508 C.2       1 UNK         0.5006 
     36 O          25.2150   22.8125    0.3033 O.2       1 UNK        -0.5103 
     37 C          28.5693   29.5512    0.6605 C.2       5 UNK         0.5055 
     38 O          27.4582   30.0466    0.8730 O.2       5 UNK        -0.5220 
     39 N          29.7138   30.2436    0.6664 N.am      6 UNK        -0.4450 
     40 CA         29.8484   31.6159    1.1438 C.3       6 UNK         0.0367 
     41 CB         30.9703   32.3205    0.3589 C.3       6 UNK        -0.1929 
     42 C          30.1465   31.5537    2.6473 C.2       6 UNK         0.5070 
     43 O          31.3133   31.5660    3.0424 O.2       6 UNK        -0.5237 
     44 N          29.0925   31.4376    3.4644 N.am      7 UNK        -0.4739 
     45 CA         29.1698   31.2391    4.9187 C.3       7 UNK         0.0276 
     46 CB         27.7539   31.0222    5.4745 C.3       7 UNK        -0.1927 
     47 C          29.8968   32.3566    5.6917 C.2       7 UNK         0.5013 
     48 O          30.4277   32.0906    6.7697 O.2       7 UNK        -0.5193 
     49 N          29.9373   33.5690    5.1209 N.am      8 UNK        -0.4253 
     50 CA         30.7195   34.7001    5.6260 C.3       8 UNK         0.0242 
     51 CB         30.2523   35.9904    4.9328 C.3       8 UNK        -0.2000 
     52 C          32.2388   34.5128    5.4472 C.2       8 UNK         0.4948 
     53 O          33.0032   35.0192    6.2695 O.2       8 UNK        -0.5275 
     54 N          32.6484   33.8003    4.3875 N.am      9 UNK        -0.4246 
     55 CA         34.0431   33.4506    4.1080 C.3       9 UNK         0.0261 
     56 CB         34.2675   33.4090    2.5872 C.3       9 UNK        -0.1959 
     57 C          34.4254   32.1041    4.7410 C.2       9 UNK         0.5033 
     58 O          35.5742   31.9421    5.1548 O.2       9 UNK        -0.5390 
     59 N          33.4684   31.1628    4.7861 N.am      10 UNK        -0.4215 
     60 CA         33.5620   29.8168    5.3675 C.3       10 UNK         0.0240 
     61 CB         33.6205   29.8993    6.9069 C.3       10 UNK        -0.1982 
     62 C          34.7074   28.9786    4.7645 C.2       10 UNK         0.4970 
     63 O          35.4244   28.2927    5.4949 O.2       10 UNK        -0.4916 
     64 N          34.8613   29.0792    3.4375 N.am      11 UNK        -0.4279 
     65 CA         35.9331   28.4742    2.6261 C.3       11 UNK         0.1003 
     66 C          37.3527   29.0765    2.8675 C.2       11 UNK         0.5709 
     67 N          37.5063   30.1715    3.6046 N.am      11 UNK        -0.7358 
     68 O          38.3385   28.5628    2.3434 O.2       11 UNK        -0.4999 
     69 C69        35.9395   26.9152    2.6473 C.3       12 UNK        -0.0954 
     70 S70        34.3197   26.1819    2.2311 S.3       12 UNK        -0.2268 
     71 C71        33.9072   25.3523    3.7972 C.3       12 UNK         0.0203 
     72 H72        25.2378   26.0978    2.9742 H         1 UNK         0.0888 
     73 H73        23.9319   25.2763    3.8230 H         1 UNK         0.0888 
     74 H74        25.4512   25.6120    4.6603 H         1 UNK         0.0888 
     75 H75        26.9010   24.8481    2.0267 H         1 UNK         0.3017 
     76 H76        27.1565   21.9978    2.5483 H         1 UNK         0.0873 
     77 H77        28.9609   23.9892    1.6259 H         1 UNK         0.0745 
     78 H78        28.6473   23.1000    0.1936 H         1 UNK         0.0745 
     79 H79        30.6920   21.3728    4.0093 H         1 UNK         0.0705 
     80 H80        29.0614   21.9767    4.1175 H         1 UNK         0.0705 
     81 H81        32.6048   22.9583    3.4672 H         1 UNK         0.1334 
     82 H82        31.9120   27.1083    4.2903 H         1 UNK         0.1417 
     83 H83        28.6225   24.3640    4.2228 H         1 UNK         0.1562 
     84 H84        29.7296   27.9435    4.6774 H         1 UNK         0.0748 
     85 H85        28.5995   26.8227    5.4000 H         1 UNK         0.0748 
     86 H86        29.5181   26.2854    1.4144 H         1 UNK         0.0940 
     87 H87        30.1762   27.7678    2.0175 H         1 UNK         0.0940 
     88 H88        29.4263   27.9142   -0.3894 H         1 UNK         0.0703 
     89 H89        26.6464   28.1507    0.0961 H         1 UNK         0.3081 
     90 H90        25.2913   25.7264   -0.1229 H         1 UNK         0.0719 
     91 H91        25.5951   27.5270   -2.5866 H         1 UNK         0.0809 
     92 H92        24.0703   26.8018   -2.0847 H         1 UNK         0.0809 
     93 H93        24.8781   27.9509   -1.0398 H         1 UNK         0.0809 
     94 H94        25.4272   23.9238   -1.3549 H         1 UNK         0.2990 
     95 H95        25.2285   22.9680   -4.0884 H         1 UNK         0.0690 
     96 H96        27.2338   21.8367   -5.0979 H         1 UNK         0.0788 
     97 H97        28.2832   23.0455   -4.3577 H         1 UNK         0.0788 
     98 H98        27.1171   23.5174   -5.5879 H         1 UNK         0.0788 
     99 H99        27.1976   22.3377   -1.9366 H         1 UNK         0.2993 
    100 H100       24.9610   20.0233   -0.5505 H         1 UNK         0.0949 
    101 H101       26.1938   18.4629   -2.0789 H         1 UNK         0.0767 
    102 H102       27.7027   19.2888   -1.7143 H         1 UNK         0.0767 
    103 H103       26.8404   18.4124   -0.4485 H         1 UNK         0.0767 
    104 H104       27.4994   20.6456    0.4046 H         1 UNK         0.3013 
    105 H105       30.5795   29.7505    0.4988 H         1 UNK         0.3121 
    106 H106       28.9214   32.1726    0.9892 H         1 UNK         0.0774 
    107 H107       31.9215   31.7929    0.4400 H         1 UNK         0.0815 
    108 H108       30.7219   32.3967   -0.6998 H         1 UNK         0.0815 
    109 H109       31.1275   33.3346    0.7285 H         1 UNK         0.0815 
    110 H110       28.1706   31.3947    3.0501 H         1 UNK         0.2987 
    111 H111       29.7430   30.3257    5.0881 H         1 UNK         0.0949 
    112 H112       27.1150   31.8890    5.3013 H         1 UNK         0.0806 
    113 H113       27.2775   30.1546    5.0168 H         1 UNK         0.0806 
    114 H114       27.7788   30.8445    6.5507 H         1 UNK         0.0806 
    115 H115       29.4503   33.6982    4.2460 H         1 UNK         0.3010 
    116 H116       30.5238   34.7975    6.6963 H         1 UNK         0.0829 
    117 H117       29.1936   36.1776    5.1136 H         1 UNK         0.0813 
    118 H118       30.8009   36.8550    5.3093 H         1 UNK         0.0813 
    119 H119       30.4083   35.9508    3.8539 H         1 UNK         0.0813 
    120 H120       31.9519   33.3702    3.7907 H         1 UNK         0.3038 
    121 H121       34.7026   34.2152    4.5244 H         1 UNK         0.0769 
    122 H122       35.3078   33.1776    2.3539 H         1 UNK         0.0811 
    123 H123       34.0391   34.3705    2.1271 H         1 UNK         0.0811 
    124 H124       33.6497   32.6518    2.1039 H         1 UNK         0.0811 
    125 H125       32.5930   31.3691    4.3066 H         1 UNK         0.3204 
    126 H126       32.6359   29.3061    5.1008 H         1 UNK         0.0748 
    127 H127       33.5741   28.9062    7.3556 H         1 UNK         0.0771 
    128 H128       34.5415   30.3712    7.2509 H         1 UNK         0.0771 
    129 H129       32.7822   30.4726    7.3035 H         1 UNK         0.0771 
    130 H130       34.2280   29.6808    2.9322 H         1 UNK         0.2980 
    131 H131       35.6956   28.7684    1.6033 H         1 UNK         0.0545 
    132 H132       36.7219   30.6150    4.0682 H         1 UNK         0.3459 
    133 H133       38.4331   30.5451    3.7315 H         1 UNK         0.3459 
    134 H134       36.2792   26.5460    3.6161 H         1 UNK         0.0616 
    135 H135       36.6557   26.5326    1.9183 H         1 UNK         0.0616 
    136 H136       34.4908   24.4343    3.8809 H         1 UNK         0.0634 
    137 H137       34.1978   25.9804    4.6398 H         1 UNK         0.0634 
@<TRIPOS>BOND
     1    1    2 1    
     2    1   72 1    
     3    1   73 1    
     4    1   74 1    
     5    2    3 2    
     6    2    4 am   BACKBONE|DICT|INTERRES
     7    4    5 1    
     8    4   75 1    
     9    5    6 1    
    10    5   35 1    
    11    5   76 1    
    12    6    7 1    
    13    6   77 1    
    14    6   78 1    
    15    7    8 1    
    16    8    9 1    
    17    8   79 1    
    18    8   80 1    
    19    9   10 ar   
    20    9   14 ar   
    21   10   11 ar   
    22   10   81 1    
    23   11   12 ar   
    24   11   71 1    
    25   12   13 ar   
    26   12   82 1    
    27   13   14 ar   
    28   13   15 1    
    29   14   83 1    
    30   15   16 1    
    31   15   84 1    
    32   15   85 1    
    33   16   17 1    
    34   17   18 1    
    35   17   86 1    
    36   17   87 1    
    37   18   19 1    
    38   18   37 1    
    39   18   88 1    
    40   19   20 am   BACKBONE|DICT|INTERRES
    41   19   89 1    
    42   20   21 2    
    43   20   22 1    
    44   22   23 1    
    45   22   24 1    
    46   22   90 1    
    47   23   91 1    
    48   23   92 1    
    49   23   93 1    
    50   24   25 am   BACKBONE|DICT|INTERRES
    51   24   94 1    
    52   25   26 2    
    53   25   27 1    
    54   27   28 1    
    55   27   29 1    
    56   27   95 1    
    57   28   96 1    
    58   28   97 1    
    59   28   98 1    
    60   29   30 am   BACKBONE|DICT|INTERRES
    61   29   99 1    
    62   30   31 2    
    63   30   32 1    
    64   32   33 1    
    65   32   34 1    
    66   32  100 1    
    67   33  101 1    
    68   33  102 1    
    69   33  103 1    
    70   34   35 am   BACKBONE|DICT|INTERRES
    71   34  104 1    
    72   35   36 2    
    73   37   38 2    
    74   37   39 am   BACKBONE|DICT|INTERRES
    75   39   40 1    
    76   39  105 1    
    77   40   41 1    
    78   40   42 1    
    79   40  106 1    
    80   41  107 1    
    81   41  108 1    
    82   41  109 1    
    83   42   43 2    
    84   42   44 am   BACKBONE|DICT|INTERRES
    85   44   45 1    
    86   44  110 1    
    87   45   46 1    
    88   45   47 1    
    89   45  111 1    
    90   46  112 1    
    91   46  113 1    
    92   46  114 1    
    93   47   48 2    
    94   47   49 am   BACKBONE|DICT|INTERRES
    95   49   50 1    
    96   49  115 1    
    97   50   51 1    
    98   50   52 1    
    99   50  116 1    
   100   51  117 1    
   101   51  118 1    
   102   51  119 1    
   103   52   53 2    
   104   52   54 am   BACKBONE|DICT|INTERRES
   105   54   55 1    
   106   54  120 1    
   107   55   56 1    
   108   55   57 1    
   109   55  121 1    
   110   56  122 1    
   111   56  123 1    
   112   56  124 1    
   113   57   58 2    
   114   57   59 am   BACKBONE|DICT|INTERRES
   115   59   60 1    
   116   59  125 1    
   117   60   61 1    
   118   60   62 1    
   119   60  126 1    
   120   61  127 1    
   121   61  128 1    
   122   61  129 1    
   123   62   63 2    
   124   62   64 am   BACKBONE|DICT|INTERRES
   125   64   65 1    
   126   64  130 1    
   127   65   66 1    
   128   65   69 1    
   129   65  131 1    
   130   66   67 am   BACKBONE|DICT|INTERRES
   131   66   68 2    
   132   67  132 1    
   133   67  133 1    
   134   69   70 1    
   135   69  134 1    
   136   69  135 1    
   137   70   71 1    
   138   71  136 1    
   139   71  137 1    
@<TRIPOS>SUBSTRUCTURE
     1 UNK         1 GROUP             0       ****    0 ROOT    
