@<TRIPOS>MOLECULE
3R136
137   139    1
SMALL
USER_CHARGES


@<TRIPOS>ATOM
      1 CA         29.8906   18.7109    1.5461 C.3       0 UNK        -0.1979 
      2 C          29.4343   20.0713    1.0399 C.2       0 UNK         0.4864 
      3 O          28.9023   20.8607    1.8212 O.2       0 UNK        -0.5359 
      4 N          29.6525   20.3459   -0.2546 N.am      1 UNK        -0.4318 
      5 CA         29.2807   21.5782   -0.9651 C.3       1 UNK         0.0824 
      6 C6         30.0893   22.8294   -0.5098 C.3       12 UNK        -0.0944 
      7 S7         31.8844   22.6625   -0.7862 S.3       12 UNK        -0.2672 
      8 C8         32.5141   22.2754    0.8786 C.3       12 UNK         0.0333 
      9 C9         32.2269   23.3760    1.8912 C.ar      12 UNK        -0.0807 
     10 C10        32.8801   24.6068    1.8016 C.ar      12 UNK        -0.0894 
     11 C11        32.6515   25.6025    2.7554 C.ar      12 UNK        -0.0804 
     12 C12        31.7618   25.3605    3.8087 C.ar      12 UNK        -0.0824 
     13 C13        31.0860   24.1360    3.9003 C.ar      12 UNK        -0.0762 
     14 C14        31.3291   23.1513    2.9380 C.ar      12 UNK        -0.0782 
     15 C15        30.1316   23.8173    5.0509 C.3       12 UNK         0.0230 
     16 S16        29.0515   25.1940    5.5671 S.3       12 UNK        -0.2608 
     17 C17        28.1436   25.5956    4.0337 C.3       12 UNK        -0.0989 
     18 CA         28.4901   27.0229    3.5364 C.3       5 UNK         0.0716 
     19 N          28.4688   27.1100    2.0742 N.am      5 UNK        -0.4135 
     20 C          29.0801   28.0764    1.3738 C.2       4 UNK         0.5031 
     21 O          29.7291   28.9864    1.8926 O.2       4 UNK        -0.5229 
     22 CA         28.8848   28.0728   -0.1537 C.3       4 UNK         0.0329 
     23 CB         30.0013   27.2539   -0.8207 C.3       4 UNK        -0.2001 
     24 N          27.5759   27.5689   -0.5907 N.am      4 UNK        -0.4303 
     25 C          26.3856   28.0192   -0.1645 C.2       3 UNK         0.5044 
     26 O          26.2588   28.9669    0.6091 O.2       3 UNK        -0.5152 
     27 CA         25.1225   27.2639   -0.6124 C.3       3 UNK         0.0319 
     28 CB         24.4510   28.0039   -1.7797 C.3       3 UNK        -0.2001 
     29 N          25.3181   25.8558   -0.9799 N.am      3 UNK        -0.4354 
     30 C          25.8876   24.8981   -0.2322 C.2       2 UNK         0.4964 
     31 O          26.4242   25.1063    0.8593 O.2       2 UNK        -0.5047 
     32 CA         25.9097   23.4772   -0.8168 C.3       2 UNK         0.0288 
     33 CB         25.2734   23.3522   -2.2229 C.3       2 UNK        -0.2113 
     34 N          27.3014   23.0423   -0.8375 N.am      2 UNK        -0.4145 
     35 C          27.7456   21.7868   -0.9643 C.2       1 UNK         0.5006 
     36 O          27.0011   20.8129   -1.1092 O.2       1 UNK        -0.5103 
     37 C          27.6375   28.1157    4.2300 C.2       5 UNK         0.5055 
     38 O          27.8087   28.3324    5.4296 O.2       5 UNK        -0.5220 
     39 N          26.7573   28.7994    3.4850 N.am      6 UNK        -0.4450 
     40 CA         26.0068   29.9652    3.9523 C.3       6 UNK         0.0367 
     41 CB         24.5276   29.8144    3.5583 C.3       6 UNK        -0.1929 
     42 C          26.5932   31.2591    3.3678 C.2       6 UNK         0.5070 
     43 O          26.7475   32.2358    4.1004 O.2       6 UNK        -0.5237 
     44 N          26.8917   31.2511    2.0607 N.am      7 UNK        -0.4739 
     45 CA         27.3545   32.4111    1.2976 C.3       7 UNK         0.0276 
     46 CB         27.2397   32.1124   -0.2062 C.3       7 UNK        -0.1927 
     47 C          28.7797   32.8573    1.6562 C.2       7 UNK         0.5013 
     48 O          29.0075   34.0589    1.8044 O.2       7 UNK        -0.5193 
     49 N          29.7052   31.8967    1.7828 N.am      8 UNK        -0.4253 
     50 CA         31.0917   32.1425    2.1826 C.3       8 UNK         0.0242 
     51 CB         32.0567   31.3623    1.2719 C.3       8 UNK        -0.2000 
     52 C          31.2917   31.7626    3.6526 C.2       8 UNK         0.4948 
     53 O          31.8547   32.5584    4.4050 O.2       8 UNK        -0.5275 
     54 N          30.8345   30.5582    4.0326 N.am      9 UNK        -0.4246 
     55 CA         30.8550   29.9448    5.3714 C.3       9 UNK         0.0261 
     56 CB         30.0149   30.7579    6.3756 C.3       9 UNK        -0.1959 
     57 C          32.2629   29.6521    5.9194 C.2       9 UNK         0.5033 
     58 O          32.5565   28.5045    6.2520 O.2       9 UNK        -0.5390 
     59 N          33.1160   30.6812    5.9643 N.am      10 UNK        -0.4215 
     60 CA         34.5439   30.6015    6.2848 C.3       10 UNK         0.0240 
     61 CB         35.0131   31.9776    6.7870 C.3       10 UNK        -0.1982 
     62 C          35.3998   30.1356    5.0893 C.2       10 UNK         0.4970 
     63 O          36.6024   29.9320    5.2589 O.2       10 UNK        -0.4916 
     64 N          34.7719   29.9901    3.9136 N.am      11 UNK        -0.4279 
     65 CA         35.3546   29.5317    2.6417 C.3       11 UNK         0.1003 
     66 C          36.2969   30.5616    1.9482 C.2       11 UNK         0.5709 
     67 N          36.3292   31.8201    2.3705 N.am      11 UNK        -0.7358 
     68 O          36.9852   30.2266    0.9870 O.2       11 UNK        -0.4999 
     69 C69        35.9834   28.1075    2.7166 C.3       12 UNK        -0.0954 
     70 S70        34.9710   26.8351    3.5503 S.3       12 UNK        -0.2268 
     71 C71        33.3933   26.9246    2.6514 C.3       12 UNK         0.0203 
     72 H72        29.0391   18.1488    1.9286 H         1 UNK         0.0888 
     73 H73        30.3626   18.1200    0.7613 H         1 UNK         0.0888 
     74 H74        30.6095   18.8345    2.3557 H         1 UNK         0.0888 
     75 H75        30.0739   19.6358   -0.8366 H         1 UNK         0.3017 
     76 H76        29.5322   21.3985   -2.0116 H         1 UNK         0.0873 
     77 H77        29.7983   23.7079   -1.0872 H         1 UNK         0.0745 
     78 H78        29.8816   23.0696    0.5332 H         1 UNK         0.0745 
     79 H79        32.0974   21.3235    1.2083 H         1 UNK         0.0705 
     80 H80        33.5927   22.1250    0.8160 H         1 UNK         0.0705 
     81 H81        33.5787   24.7831    0.9949 H         1 UNK         0.1334 
     82 H82        31.6070   26.1217    4.5616 H         1 UNK         0.1417 
     83 H83        30.8258   22.1969    3.0118 H         1 UNK         0.1562 
     84 H84        30.7237   23.5024    5.9109 H         1 UNK         0.0748 
     85 H85        29.4934   22.9705    4.7923 H         1 UNK         0.0748 
     86 H86        27.0714   25.4758    4.2013 H         1 UNK         0.0940 
     87 H87        28.4027   24.8528    3.2769 H         1 UNK         0.0940 
     88 H88        29.5230   27.2307    3.8217 H         1 UNK         0.0703 
     89 H89        27.9079   26.4201    1.5852 H         1 UNK         0.3081 
     90 H90        28.9674   29.1059   -0.4953 H         1 UNK         0.0719 
     91 H91        29.9665   26.2045   -0.5256 H         1 UNK         0.0809 
     92 H92        29.9367   27.3019   -1.9078 H         1 UNK         0.0809 
     93 H93        30.9843   27.6356   -0.5401 H         1 UNK         0.0809 
     94 H94        27.5799   26.7948   -1.2377 H         1 UNK         0.2990 
     95 H95        24.4353   27.2758    0.2360 H         1 UNK         0.0690 
     96 H96        23.4861   27.5619   -2.0291 H         1 UNK         0.0788 
     97 H97        25.0709   27.9890   -2.6772 H         1 UNK         0.0788 
     98 H98        24.2685   29.0497   -1.5271 H         1 UNK         0.0788 
     99 H99        24.9330   25.5763   -1.8710 H         1 UNK         0.2993 
    100 H100       25.3568   22.8417   -0.1217 H         1 UNK         0.0949 
    101 H101       25.2704   22.3172   -2.5649 H         1 UNK         0.0767 
    102 H102       24.2321   23.6772   -2.2200 H         1 UNK         0.0767 
    103 H103       25.8112   23.9388   -2.9691 H         1 UNK         0.0767 
    104 H104       27.9741   23.7732   -0.6552 H         1 UNK         0.3013 
    105 H105       26.6788   28.5895    2.4957 H         1 UNK         0.3121 
    106 H106       26.0540   30.0433    5.0406 H         1 UNK         0.0774 
    107 H107       24.3969   29.7380    2.4782 H         1 UNK         0.0815 
    108 H108       23.9456   30.6725    3.8971 H         1 UNK         0.0815 
    109 H109       24.0880   28.9258    4.0112 H         1 UNK         0.0815 
    110 H110       26.6890   30.4111    1.5208 H         1 UNK         0.2987 
    111 H111       26.6857   33.2442    1.5257 H         1 UNK         0.0949 
    112 H112       27.8657   31.2704   -0.5016 H         1 UNK         0.0806 
    113 H113       26.2126   31.8771   -0.4858 H         1 UNK         0.0806 
    114 H114       27.5483   32.9736   -0.8005 H         1 UNK         0.0806 
    115 H115       29.4293   30.9258    1.6793 H         1 UNK         0.3010 
    116 H116       31.3328   33.2028    2.0799 H         1 UNK         0.0829 
    117 H117       31.9335   30.2827    1.3583 H         1 UNK         0.0813 
    118 H118       31.9102   31.6292    0.2253 H         1 UNK         0.0813 
    119 H119       33.0930   31.5945    1.5195 H         1 UNK         0.0813 
    120 H120       30.4294   29.9725    3.3042 H         1 UNK         0.3038 
    121 H121       30.3723   28.9750    5.2561 H         1 UNK         0.0769 
    122 H122       29.9572   30.2456    7.3367 H         1 UNK         0.0811 
    123 H123       30.4320   31.7484    6.5587 H         1 UNK         0.0811 
    124 H124       28.9931   30.8872    6.0176 H         1 UNK         0.0811 
    125 H125       32.7684   31.5741    5.6135 H         1 UNK         0.3204 
    126 H126       34.6844   29.8747    7.0877 H         1 UNK         0.0748 
    127 H127       36.0665   31.9550    7.0698 H         1 UNK         0.0771 
    128 H128       34.8956   32.7477    6.0234 H         1 UNK         0.0771 
    129 H129       34.4507   32.2902    7.6671 H         1 UNK         0.0771 
    130 H130       33.7871   30.1996    3.8888 H         1 UNK         0.2980 
    131 H131       34.5055   29.4634    1.9622 H         1 UNK         0.0545 
    132 H132       36.9340   32.4790    1.9060 H         1 UNK         0.3459 
    133 H133       35.7716   32.1133    3.1556 H         1 UNK         0.3459 
    134 H134       36.2024   27.7416    1.7120 H         1 UNK         0.0616 
    135 H135       36.9435   28.1481    3.2334 H         1 UNK         0.0616 
    136 H136       33.5771   27.1628    1.6026 H         1 UNK         0.0634 
    137 H137       32.7865   27.7361    3.0565 H         1 UNK         0.0634 
@<TRIPOS>BOND
     1    1    2 1    
     2    1   72 1    
     3    1   73 1    
     4    1   74 1    
     5    2    3 2    
     6    2    4 am   BACKBONE|DICT|INTERRES
     7    4    5 1    
     8    4   75 1    
     9    5    6 1    
    10    5   35 1    
    11    5   76 1    
    12    6    7 1    
    13    6   77 1    
    14    6   78 1    
    15    7    8 1    
    16    8    9 1    
    17    8   79 1    
    18    8   80 1    
    19    9   10 ar   
    20    9   14 ar   
    21   10   11 ar   
    22   10   81 1    
    23   11   12 ar   
    24   11   71 1    
    25   12   13 ar   
    26   12   82 1    
    27   13   14 ar   
    28   13   15 1    
    29   14   83 1    
    30   15   16 1    
    31   15   84 1    
    32   15   85 1    
    33   16   17 1    
    34   17   18 1    
    35   17   86 1    
    36   17   87 1    
    37   18   19 1    
    38   18   37 1    
    39   18   88 1    
    40   19   20 am   BACKBONE|DICT|INTERRES
    41   19   89 1    
    42   20   21 2    
    43   20   22 1    
    44   22   23 1    
    45   22   24 1    
    46   22   90 1    
    47   23   91 1    
    48   23   92 1    
    49   23   93 1    
    50   24   25 am   BACKBONE|DICT|INTERRES
    51   24   94 1    
    52   25   26 2    
    53   25   27 1    
    54   27   28 1    
    55   27   29 1    
    56   27   95 1    
    57   28   96 1    
    58   28   97 1    
    59   28   98 1    
    60   29   30 am   BACKBONE|DICT|INTERRES
    61   29   99 1    
    62   30   31 2    
    63   30   32 1    
    64   32   33 1    
    65   32   34 1    
    66   32  100 1    
    67   33  101 1    
    68   33  102 1    
    69   33  103 1    
    70   34   35 am   BACKBONE|DICT|INTERRES
    71   34  104 1    
    72   35   36 2    
    73   37   38 2    
    74   37   39 am   BACKBONE|DICT|INTERRES
    75   39   40 1    
    76   39  105 1    
    77   40   41 1    
    78   40   42 1    
    79   40  106 1    
    80   41  107 1    
    81   41  108 1    
    82   41  109 1    
    83   42   43 2    
    84   42   44 am   BACKBONE|DICT|INTERRES
    85   44   45 1    
    86   44  110 1    
    87   45   46 1    
    88   45   47 1    
    89   45  111 1    
    90   46  112 1    
    91   46  113 1    
    92   46  114 1    
    93   47   48 2    
    94   47   49 am   BACKBONE|DICT|INTERRES
    95   49   50 1    
    96   49  115 1    
    97   50   51 1    
    98   50   52 1    
    99   50  116 1    
   100   51  117 1    
   101   51  118 1    
   102   51  119 1    
   103   52   53 2    
   104   52   54 am   BACKBONE|DICT|INTERRES
   105   54   55 1    
   106   54  120 1    
   107   55   56 1    
   108   55   57 1    
   109   55  121 1    
   110   56  122 1    
   111   56  123 1    
   112   56  124 1    
   113   57   58 2    
   114   57   59 am   BACKBONE|DICT|INTERRES
   115   59   60 1    
   116   59  125 1    
   117   60   61 1    
   118   60   62 1    
   119   60  126 1    
   120   61  127 1    
   121   61  128 1    
   122   61  129 1    
   123   62   63 2    
   124   62   64 am   BACKBONE|DICT|INTERRES
   125   64   65 1    
   126   64  130 1    
   127   65   66 1    
   128   65   69 1    
   129   65  131 1    
   130   66   67 am   BACKBONE|DICT|INTERRES
   131   66   68 2    
   132   67  132 1    
   133   67  133 1    
   134   69   70 1    
   135   69  134 1    
   136   69  135 1    
   137   70   71 1    
   138   71  136 1    
   139   71  137 1    
@<TRIPOS>SUBSTRUCTURE
     1 UNK         1 GROUP             0       ****    0 ROOT    
