@<TRIPOS>MOLECULE
3R136
137   139    1
SMALL
USER_CHARGES


@<TRIPOS>ATOM
      1 CA         28.9550   19.3249    2.3788 C.3       0 UNK        -0.1979 
      2 C          28.4196   20.1495    1.2179 C.2       0 UNK         0.4864 
      3 O          27.2491   20.0138    0.8568 O.2       0 UNK        -0.5359 
      4 N          29.2670   21.0041    0.6280 N.am      1 UNK        -0.4318 
      5 CA         28.9445   21.9093   -0.4780 C.3       1 UNK         0.0824 
      6 C6         30.2078   22.2602   -1.3206 C.3       12 UNK        -0.0944 
      7 S7         31.4176   23.4825   -0.6937 S.3       12 UNK        -0.2672 
      8 C8         32.2295   22.6941    0.7278 C.3       12 UNK         0.0333 
      9 C9         32.0087   23.5114    1.9952 C.ar      12 UNK        -0.0807 
     10 C10        32.8554   24.5842    2.2986 C.ar      12 UNK        -0.0894 
     11 C11        32.6717   25.3253    3.4713 C.ar      12 UNK        -0.0804 
     12 C12        31.6338   24.9861    4.3435 C.ar      12 UNK        -0.0824 
     13 C13        30.7688   23.9311    4.0425 C.ar      12 UNK        -0.0762 
     14 C14        30.9645   23.1966    2.8700 C.ar      12 UNK        -0.0782 
     15 C15        29.6272   23.5738    4.9856 C.3       12 UNK         0.0230 
     16 S16        28.4555   24.9486    5.2280 S.3       12 UNK        -0.2608 
     17 C17        27.9282   25.3244    3.5212 C.3       12 UNK        -0.0989 
     18 CA         28.4245   26.7137    3.0423 C.3       5 UNK         0.0716 
     19 N          28.6185   26.7501    1.5828 N.am      5 UNK        -0.4135 
     20 C          29.0425   27.8072    0.8693 C.2       4 UNK         0.5031 
     21 O          29.2974   28.9049    1.3549 O.2       4 UNK        -0.5229 
     22 CA         29.1622   27.6387   -0.6498 C.3       4 UNK         0.0329 
     23 CB         30.5109   27.0051   -1.0123 C.3       4 UNK        -0.2001 
     24 N          28.0586   26.8324   -1.1714 N.am      4 UNK        -0.4303 
     25 C          26.8749   27.3463   -1.5380 C.2       3 UNK         0.5044 
     26 O          26.6317   28.5529   -1.5740 O.2       3 UNK        -0.5152 
     27 CA         25.7582   26.3529   -1.9075 C.3       3 UNK         0.0319 
     28 CB         25.8243   25.9991   -3.4018 C.3       3 UNK        -0.2001 
     29 N          25.7787   25.1211   -1.1154 N.am      3 UNK        -0.4354 
     30 C          25.6284   25.0588    0.2155 C.2       2 UNK         0.4964 
     31 O          25.4322   26.0391    0.9354 O.2       2 UNK        -0.5047 
     32 CA         25.7635   23.6676    0.8590 C.3       2 UNK         0.0288 
     33 CB         24.4081   22.9433    0.8498 C.3       2 UNK        -0.2113 
     34 N          26.7832   22.7907    0.2667 N.am      2 UNK        -0.4145 
     35 C          28.0627   23.0937   -0.0032 C.2       1 UNK         0.5006 
     36 O          28.5299   24.2243    0.1456 O.2       1 UNK        -0.5103 
     37 C          27.5109   27.8399    3.5827 C.2       5 UNK         0.5055 
     38 O          27.7129   28.3009    4.7068 O.2       5 UNK        -0.5220 
     39 N          26.5475   28.2874    2.7625 N.am      6 UNK        -0.4450 
     40 CA         25.6991   29.4586    3.0030 C.3       6 UNK         0.0367 
     41 CB         24.6882   29.5816    1.8518 C.3       6 UNK        -0.1929 
     42 C          26.4767   30.7814    3.1793 C.2       6 UNK         0.5070 
     43 O          25.9841   31.6770    3.8659 O.2       6 UNK        -0.5237 
     44 N          27.6744   30.8788    2.5887 N.am      7 UNK        -0.4739 
     45 CA         28.6330   31.9656    2.7670 C.3       7 UNK         0.0276 
     46 CB         29.0860   32.4633    1.3816 C.3       7 UNK        -0.1927 
     47 C          29.7984   31.4287    3.6131 C.2       7 UNK         0.5013 
     48 O          30.9129   31.2701    3.1106 O.2       7 UNK        -0.5193 
     49 N          29.4984   31.1202    4.8830 N.am      8 UNK        -0.4253 
     50 CA         30.4211   30.5443    5.8660 C.3       8 UNK         0.0242 
     51 CB         29.6885   30.3758    7.2062 C.3       8 UNK        -0.2000 
     52 C          31.7004   31.3787    6.0517 C.2       8 UNK         0.4948 
     53 O          31.6457   32.6099    5.9889 O.2       8 UNK        -0.5275 
     54 N          32.8307   30.6866    6.2469 N.am      9 UNK        -0.4246 
     55 CA         34.2118   31.1894    6.3145 C.3       9 UNK         0.0261 
     56 CB         34.4062   32.2206    7.4436 C.3       9 UNK        -0.1959 
     57 C          34.7468   31.7157    4.9693 C.2       9 UNK         0.5033 
     58 O          35.8680   31.3659    4.5976 O.2       9 UNK        -0.5390 
     59 N          33.9371   32.4932    4.2357 N.am      10 UNK        -0.4215 
     60 CA         34.2219   32.9749    2.8778 C.3       10 UNK         0.0240 
     61 CB         33.1352   33.9717    2.4446 C.3       10 UNK        -0.1982 
     62 C          34.3742   31.8390    1.8469 C.2       10 UNK         0.4970 
     63 O          35.1086   32.0049    0.8722 O.2       10 UNK        -0.4916 
     64 N          33.7218   30.6993    2.1068 N.am      11 UNK        -0.4279 
     65 CA         33.9236   29.4102    1.4311 C.3       11 UNK         0.1003 
     66 C          35.3581   28.8086    1.5388 C.2       11 UNK         0.5709 
     67 N          36.2171   29.2638    2.4451 N.am      11 UNK        -0.7358 
     68 O          35.6989   27.9087    0.7751 O.2       11 UNK        -0.4999 
     69 C69        32.8436   28.3817    1.8617 C.3       12 UNK        -0.0954 
     70 S70        32.7769   28.0930    3.6663 S.3       12 UNK        -0.2268 
     71 C71        33.6025   26.4775    3.8196 C.3       12 UNK         0.0203 
     72 H72        28.3944   19.5481    3.2861 H         1 UNK         0.0888 
     73 H73        28.8467   18.2621    2.1643 H         1 UNK         0.0888 
     74 H74        30.0085   19.5255    2.5726 H         1 UNK         0.0888 
     75 H75        30.2199   21.0508    0.9525 H         1 UNK         0.3017 
     76 H76        28.3101   21.3381   -1.1604 H         1 UNK         0.0873 
     77 H77        29.8735   22.6454   -2.2853 H         1 UNK         0.0745 
     78 H78        30.7519   21.3455   -1.5619 H         1 UNK         0.0745 
     79 H79        31.8869   21.6685    0.8571 H         1 UNK         0.0705 
     80 H80        33.2984   22.6242    0.5203 H         1 UNK         0.0705 
     81 H81        33.6598   24.8391    1.6219 H         1 UNK         0.1334 
     82 H82        31.4883   25.5558    5.2513 H         1 UNK         0.1417 
     83 H83        30.2992   22.3783    2.6454 H         1 UNK         0.1562 
     84 H84        30.0423   23.2900    5.9535 H         1 UNK         0.0748 
     85 H85        29.0759   22.7050    4.6222 H         1 UNK         0.0748 
     86 H86        26.8402   25.2572    3.4727 H         1 UNK         0.0940 
     87 H87        28.3011   24.5380    2.8645 H         1 UNK         0.0940 
     88 H88        29.4183   26.8897    3.4604 H         1 UNK         0.0703 
     89 H89        28.4837   25.8717    1.0895 H         1 UNK         0.3081 
     90 H90        29.1317   28.6301   -1.1075 H         1 UNK         0.0719 
     91 H91        30.7020   26.1186   -0.4113 H         1 UNK         0.0809 
     92 H92        30.5596   26.7238   -2.0642 H         1 UNK         0.0809 
     93 H93        31.3276   27.7018   -0.8206 H         1 UNK         0.0809 
     94 H94        28.1622   25.8257   -1.1079 H         1 UNK         0.2990 
     95 H95        24.8042   26.8488   -1.7160 H         1 UNK         0.0690 
     96 H96        25.7873   26.8992   -4.0173 H         1 UNK         0.0788 
     97 H97        24.9841   25.3713   -3.6992 H         1 UNK         0.0788 
     98 H98        26.7453   25.4709   -3.6522 H         1 UNK         0.0788 
     99 H99        25.9386   24.2595   -1.6165 H         1 UNK         0.2993 
    100 H100       26.0483   23.8181    1.8994 H         1 UNK         0.0949 
    101 H101       24.4534   22.0101    1.4121 H         1 UNK         0.0767 
    102 H102       23.6320   23.5580    1.3084 H         1 UNK         0.0767 
    103 H103       24.0827   22.7082   -0.1644 H         1 UNK         0.0767 
    104 H104       26.5366   21.8078    0.2034 H         1 UNK         0.3013 
    105 H105       26.4038   27.7942    1.8890 H         1 UNK         0.3121 
    106 H106       25.1488   29.2788    3.9287 H         1 UNK         0.0774 
    107 H107       25.1873   29.7330    0.8934 H         1 UNK         0.0815 
    108 H108       24.0171   30.4272    2.0088 H         1 UNK         0.0815 
    109 H109       24.0696   28.6876    1.7691 H         1 UNK         0.0815 
    110 H110       28.0515   30.0665    2.1028 H         1 UNK         0.2987 
    111 H111       28.1845   32.8045    3.3035 H         1 UNK         0.0949 
    112 H112       29.5609   31.6697    0.8027 H         1 UNK         0.0806 
    113 H113       28.2437   32.8411    0.8023 H         1 UNK         0.0806 
    114 H114       29.8070   33.2759    1.4762 H         1 UNK         0.0806 
    115 H115       28.5475   31.2616    5.1907 H         1 UNK         0.3010 
    116 H116       30.6984   29.5557    5.4942 H         1 UNK         0.0829 
    117 H117       28.8167   29.7289    7.1018 H         1 UNK         0.0813 
    118 H118       30.3391   29.9212    7.9546 H         1 UNK         0.0813 
    119 H119       29.3525   31.3342    7.6043 H         1 UNK         0.0813 
    120 H120       32.7560   29.6782    6.2565 H         1 UNK         0.3038 
    121 H121       34.8203   30.3193    6.5672 H         1 UNK         0.0769 
    122 H122       34.0649   31.8287    8.4016 H         1 UNK         0.0811 
    123 H123       35.4608   32.4760    7.5549 H         1 UNK         0.0811 
    124 H124       33.8705   33.1504    7.2511 H         1 UNK         0.0811 
    125 H125       33.0258   32.7149    4.6298 H         1 UNK         0.3204 
    126 H126       35.1750   33.5064    2.9141 H         1 UNK         0.0748 
    127 H127       33.3426   34.3670    1.4492 H         1 UNK         0.0771 
    128 H128       32.1503   33.5065    2.4112 H         1 UNK         0.0771 
    129 H129       33.0816   34.8211    3.1257 H         1 UNK         0.0771 
    130 H130       33.0590   30.6889    2.8719 H         1 UNK         0.2980 
    131 H131       33.7719   29.6030    0.3678 H         1 UNK         0.0545 
    132 H132       37.1389   28.8607    2.4898 H         1 UNK         0.3459 
    133 H133       35.9624   30.0041    3.0891 H         1 UNK         0.3459 
    134 H134       32.9651   27.4347    1.3333 H         1 UNK         0.0616 
    135 H135       31.8662   28.7573    1.5630 H         1 UNK         0.0616 
    136 H136       34.4993   26.4593    3.1990 H         1 UNK         0.0634 
    137 H137       33.9437   26.3591    4.8489 H         1 UNK         0.0634 
@<TRIPOS>BOND
     1    1    2 1    
     2    1   72 1    
     3    1   73 1    
     4    1   74 1    
     5    2    3 2    
     6    2    4 am   BACKBONE|DICT|INTERRES
     7    4    5 1    
     8    4   75 1    
     9    5    6 1    
    10    5   35 1    
    11    5   76 1    
    12    6    7 1    
    13    6   77 1    
    14    6   78 1    
    15    7    8 1    
    16    8    9 1    
    17    8   79 1    
    18    8   80 1    
    19    9   10 ar   
    20    9   14 ar   
    21   10   11 ar   
    22   10   81 1    
    23   11   12 ar   
    24   11   71 1    
    25   12   13 ar   
    26   12   82 1    
    27   13   14 ar   
    28   13   15 1    
    29   14   83 1    
    30   15   16 1    
    31   15   84 1    
    32   15   85 1    
    33   16   17 1    
    34   17   18 1    
    35   17   86 1    
    36   17   87 1    
    37   18   19 1    
    38   18   37 1    
    39   18   88 1    
    40   19   20 am   BACKBONE|DICT|INTERRES
    41   19   89 1    
    42   20   21 2    
    43   20   22 1    
    44   22   23 1    
    45   22   24 1    
    46   22   90 1    
    47   23   91 1    
    48   23   92 1    
    49   23   93 1    
    50   24   25 am   BACKBONE|DICT|INTERRES
    51   24   94 1    
    52   25   26 2    
    53   25   27 1    
    54   27   28 1    
    55   27   29 1    
    56   27   95 1    
    57   28   96 1    
    58   28   97 1    
    59   28   98 1    
    60   29   30 am   BACKBONE|DICT|INTERRES
    61   29   99 1    
    62   30   31 2    
    63   30   32 1    
    64   32   33 1    
    65   32   34 1    
    66   32  100 1    
    67   33  101 1    
    68   33  102 1    
    69   33  103 1    
    70   34   35 am   BACKBONE|DICT|INTERRES
    71   34  104 1    
    72   35   36 2    
    73   37   38 2    
    74   37   39 am   BACKBONE|DICT|INTERRES
    75   39   40 1    
    76   39  105 1    
    77   40   41 1    
    78   40   42 1    
    79   40  106 1    
    80   41  107 1    
    81   41  108 1    
    82   41  109 1    
    83   42   43 2    
    84   42   44 am   BACKBONE|DICT|INTERRES
    85   44   45 1    
    86   44  110 1    
    87   45   46 1    
    88   45   47 1    
    89   45  111 1    
    90   46  112 1    
    91   46  113 1    
    92   46  114 1    
    93   47   48 2    
    94   47   49 am   BACKBONE|DICT|INTERRES
    95   49   50 1    
    96   49  115 1    
    97   50   51 1    
    98   50   52 1    
    99   50  116 1    
   100   51  117 1    
   101   51  118 1    
   102   51  119 1    
   103   52   53 2    
   104   52   54 am   BACKBONE|DICT|INTERRES
   105   54   55 1    
   106   54  120 1    
   107   55   56 1    
   108   55   57 1    
   109   55  121 1    
   110   56  122 1    
   111   56  123 1    
   112   56  124 1    
   113   57   58 2    
   114   57   59 am   BACKBONE|DICT|INTERRES
   115   59   60 1    
   116   59  125 1    
   117   60   61 1    
   118   60   62 1    
   119   60  126 1    
   120   61  127 1    
   121   61  128 1    
   122   61  129 1    
   123   62   63 2    
   124   62   64 am   BACKBONE|DICT|INTERRES
   125   64   65 1    
   126   64  130 1    
   127   65   66 1    
   128   65   69 1    
   129   65  131 1    
   130   66   67 am   BACKBONE|DICT|INTERRES
   131   66   68 2    
   132   67  132 1    
   133   67  133 1    
   134   69   70 1    
   135   69  134 1    
   136   69  135 1    
   137   70   71 1    
   138   71  136 1    
   139   71  137 1    
@<TRIPOS>SUBSTRUCTURE
     1 UNK         1 GROUP             0       ****    0 ROOT    
