@<TRIPOS>MOLECULE
3R136
137   139    1
SMALL
USER_CHARGES


@<TRIPOS>ATOM
      1 CA         26.6187   19.6161    2.2119 C.3       0 UNK        -0.1979 
      2 C          27.0877   20.8918    1.5303 C.2       0 UNK         0.4864 
      3 O          26.2865   21.8066    1.3318 O.2       0 UNK        -0.5359 
      4 N          28.3826   20.9709    1.1859 N.am      1 UNK        -0.4318 
      5 CA         29.0103   22.1072    0.4952 C.3       1 UNK         0.0824 
      6 C6         30.4996   21.8287    0.1654 C.3       12 UNK        -0.0944 
      7 S7         31.0938   22.7807   -1.2755 S.3       12 UNK        -0.2672 
      8 C8         32.6695   23.4703   -0.6719 C.3       12 UNK         0.0333 
      9 C9         32.4553   24.6538    0.2601 C.ar      12 UNK        -0.0807 
     10 C10        32.5296   24.4852    1.6460 C.ar      12 UNK        -0.0894 
     11 C11        32.3172   25.5687    2.5021 C.ar      12 UNK        -0.0804 
     12 C12        32.0130   26.8216    1.9648 C.ar      12 UNK        -0.0824 
     13 C13        31.9709   27.0146    0.5815 C.ar      12 UNK        -0.0762 
     14 C14        32.2008   25.9248   -0.2665 C.ar      12 UNK        -0.0782 
     15 C15        31.6847   28.4063    0.0208 C.3       12 UNK         0.0230 
     16 S16        30.3439   28.4390   -1.2169 S.3       12 UNK        -0.2608 
     17 C17        29.0808   27.4318   -0.3777 C.3       12 UNK        -0.0989 
     18 CA         27.6594   27.5908   -0.9632 C.3       5 UNK         0.0716 
     19 N          26.8670   26.3873   -0.7023 N.am      5 UNK        -0.4135 
     20 C          25.6964   26.0827   -1.2757 C.2       4 UNK         0.5031 
     21 O          25.1429   26.7833   -2.1251 O.2       4 UNK        -0.5229 
     22 CA         25.0410   24.7556   -0.8520 C.3       4 UNK         0.0329 
     23 CB         25.6010   23.5904   -1.6836 C.3       4 UNK        -0.2001 
     24 N          25.2046   24.4534    0.5722 N.am      4 UNK        -0.4303 
     25 C          24.5933   25.1128    1.5672 C.2       3 UNK         0.5044 
     26 O          23.7982   26.0364    1.3916 O.2       3 UNK        -0.5152 
     27 CA         24.9075   24.6583    3.0016 C.3       3 UNK         0.0319 
     28 CB         23.9999   23.4868    3.4118 C.3       3 UNK        -0.2001 
     29 N          26.3097   24.2663    3.1515 N.am      3 UNK        -0.4354 
     30 C          27.3042   25.1191    3.4394 C.2       2 UNK         0.4964 
     31 O          27.1327   26.3141    3.6794 O.2       2 UNK        -0.5047 
     32 CA         28.7376   24.5529    3.4730 C.3       2 UNK         0.0288 
     33 CB         29.1111   24.1484    4.9091 C.3       2 UNK        -0.2113 
     34 N          28.9588   23.4102    2.5811 N.am      2 UNK        -0.4145 
     35 C          28.8189   23.4409    1.2470 C.2       1 UNK         0.5006 
     36 O          28.4646   24.4393    0.6237 O.2       1 UNK        -0.5103 
     37 C          26.9745   28.8686   -0.4348 C.2       5 UNK         0.5055 
     38 O          26.1902   28.8103    0.5156 O.2       5 UNK        -0.5220 
     39 N          27.3228   30.0069   -1.0436 N.am      6 UNK        -0.4450 
     40 CA         26.8447   31.3413   -0.6867 C.3       6 UNK         0.0367 
     41 CB         25.6647   31.7294   -1.5990 C.3       6 UNK        -0.1929 
     42 C          28.0107   32.3419   -0.7402 C.2       6 UNK         0.5070 
     43 O          27.8726   33.4217   -1.3174 O.2       6 UNK        -0.5237 
     44 N          29.1471   31.9585   -0.1473 N.am      7 UNK        -0.4739 
     45 CA         30.3432   32.7851    0.0051 C.3       7 UNK         0.0276 
     46 CB         31.4483   32.2667   -0.9298 C.3       7 UNK        -0.1927 
     47 C          30.7958   32.7251    1.4681 C.2       7 UNK         0.5013 
     48 O          30.5963   31.7009    2.1282 O.2       7 UNK        -0.5193 
     49 N          31.4112   33.8135    1.9458 N.am      8 UNK        -0.4253 
     50 CA         31.8615   33.9992    3.3287 C.3       8 UNK         0.0242 
     51 CB         31.9440   35.5094    3.6242 C.3       8 UNK        -0.2000 
     52 C          33.1828   33.2636    3.6308 C.2       8 UNK         0.4948 
     53 O          34.1719   33.8958    4.0087 O.2       8 UNK        -0.5275 
     54 N          33.1784   31.9379    3.4555 N.am      9 UNK        -0.4246 
     55 CA         34.2651   31.0406    3.8494 C.3       9 UNK         0.0261 
     56 CB         34.0968   29.7053    3.1092 C.3       9 UNK        -0.1959 
     57 C          34.2514   30.8058    5.3690 C.2       9 UNK         0.5033 
     58 O          33.1889   30.8871    5.9916 O.2       9 UNK        -0.5390 
     59 N          35.4166   30.4582    5.9328 N.am      10 UNK        -0.4215 
     60 CA         35.6060   30.1742    7.3631 C.3       10 UNK         0.0240 
     61 CB         37.0988   29.9337    7.6415 C.3       10 UNK        -0.1982 
     62 C          34.7632   28.9977    7.8937 C.2       10 UNK         0.4970 
     63 O          34.3899   29.0047    9.0672 O.2       10 UNK        -0.4916 
     64 N          34.4672   28.0287    7.0197 N.am      11 UNK        -0.4279 
     65 CA         33.5426   26.9136    7.2658 C.3       11 UNK         0.1003 
     66 C          32.0314   27.2857    7.1823 C.2       11 UNK         0.5709 
     67 N          31.6513   28.5048    6.8163 N.am      11 UNK        -0.7358 
     68 O          31.1808   26.4472    7.4698 O.2       11 UNK        -0.4999 
     69 C69        33.8998   25.6801    6.3923 C.3       12 UNK        -0.0954 
     70 S70        34.0205   26.0421    4.6067 S.3       12 UNK        -0.2268 
     71 C71        32.4312   25.3966    4.0070 C.3       12 UNK         0.0203 
     72 H72        25.8366   19.1427    1.6192 H         1 UNK         0.0888 
     73 H73        26.2090   19.8460    3.1950 H         1 UNK         0.0888 
     74 H74        27.4294   18.8991    2.3400 H         1 UNK         0.0888 
     75 H75        28.9883   20.1861    1.3802 H         1 UNK         0.3017 
     76 H76        28.4713   22.2022   -0.4497 H         1 UNK         0.0873 
     77 H77        31.1371   21.9981    1.0342 H         1 UNK         0.0745 
     78 H78        30.6326   20.7771   -0.0935 H         1 UNK         0.0745 
     79 H79        33.2493   22.6870   -0.1811 H         1 UNK         0.0705 
     80 H80        33.2616   23.7904   -1.5305 H         1 UNK         0.0705 
     81 H81        32.7572   23.5123    2.0593 H         1 UNK         0.1334 
     82 H82        31.8261   27.6506    2.6311 H         1 UNK         0.1417 
     83 H83        32.1587   26.0624   -1.3385 H         1 UNK         0.1562 
     84 H84        32.5952   28.7974   -0.4346 H         1 UNK         0.0748 
     85 H85        31.4225   29.0975    0.8239 H         1 UNK         0.0748 
     86 H86        29.0942   27.6126    0.6997 H         1 UNK         0.0940 
     87 H87        29.4154   26.4041   -0.5128 H         1 UNK         0.0940 
     88 H88        27.7375   27.6754   -2.0495 H         1 UNK         0.0703 
     89 H89        27.2745   25.7207   -0.0510 H         1 UNK         0.3081 
     90 H90        23.9712   24.8346   -1.0568 H         1 UNK         0.0719 
     91 H91        26.6727   23.4636   -1.5277 H         1 UNK         0.0809 
     92 H92        25.1124   22.6495   -1.4292 H         1 UNK         0.0809 
     93 H93        25.4441   23.7611   -2.7495 H         1 UNK         0.0809 
     94 H94        25.7899   23.6574    0.8083 H         1 UNK         0.2990 
     95 H95        24.6932   25.4945    3.6709 H         1 UNK         0.0690 
     96 H96        24.1828   23.1868    4.4437 H         1 UNK         0.0788 
     97 H97        24.1498   22.6128    2.7769 H         1 UNK         0.0788 
     98 H98        22.9480   23.7660    3.3371 H         1 UNK         0.0788 
     99 H99        26.5371   23.3092    2.9132 H         1 UNK         0.2993 
    100 H100       29.4076   25.3520    3.1489 H         1 UNK         0.0949 
    101 H101       29.0539   25.0056    5.5819 H         1 UNK         0.0767 
    102 H102       28.4398   23.3821    5.2991 H         1 UNK         0.0767 
    103 H103       30.1272   23.7607    4.9684 H         1 UNK         0.0767 
    104 H104       29.2164   22.5363    3.0157 H         1 UNK         0.3013 
    105 H105       28.0236   29.9725   -1.7730 H         1 UNK         0.3121 
    106 H106       26.4913   31.3455    0.3468 H         1 UNK         0.0774 
    107 H107       25.9634   31.7707   -2.6470 H         1 UNK         0.0815 
    108 H108       25.2677   32.7095   -1.3315 H         1 UNK         0.0815 
    109 H109       24.8458   31.0152   -1.5116 H         1 UNK         0.0815 
    110 H110       29.1667   31.0840    0.3619 H         1 UNK         0.2987 
    111 H111       30.1212   33.8252   -0.2448 H         1 UNK         0.0949 
    112 H112       31.7342   31.2431   -0.6889 H         1 UNK         0.0806 
    113 H113       31.1265   32.2865   -1.9711 H         1 UNK         0.0806 
    114 H114       32.3458   32.8819   -0.8555 H         1 UNK         0.0806 
    115 H115       31.5773   34.5880    1.3190 H         1 UNK         0.3010 
    116 H116       31.1079   33.5766    3.9973 H         1 UNK         0.0829 
    117 H117       30.9810   35.9973    3.4724 H         1 UNK         0.0813 
    118 H118       32.2347   35.6897    4.6601 H         1 UNK         0.0813 
    119 H119       32.6773   36.0070    2.9883 H         1 UNK         0.0813 
    120 H120       32.3093   31.5110    3.1504 H         1 UNK         0.3038 
    121 H121       35.2178   31.4908    3.5621 H         1 UNK         0.0769 
    122 H122       33.1937   29.1911    3.4348 H         1 UNK         0.0811 
    123 H123       34.9373   29.0371    3.3011 H         1 UNK         0.0811 
    124 H124       34.0356   29.8475    2.0300 H         1 UNK         0.0811 
    125 H125       36.2395   30.4009    5.3491 H         1 UNK         0.3204 
    126 H126       35.2958   31.0644    7.9144 H         1 UNK         0.0748 
    127 H127       37.2729   29.7456    8.7021 H         1 UNK         0.0771 
    128 H128       37.4792   29.0720    7.0914 H         1 UNK         0.0771 
    129 H129       37.6996   30.8011    7.3669 H         1 UNK         0.0771 
    130 H130       34.8120   28.1036    6.0747 H         1 UNK         0.2980 
    131 H131       33.6893   26.6030    8.3019 H         1 UNK         0.0545 
    132 H132       30.6672   28.7145    6.7803 H         1 UNK         0.3459 
    133 H133       32.3235   29.2301    6.5884 H         1 UNK         0.3459 
    134 H134       33.1992   24.8602    6.5610 H         1 UNK         0.0616 
    135 H135       34.8713   25.2949    6.7052 H         1 UNK         0.0616 
    136 H136       32.3467   24.3435    4.2784 H         1 UNK         0.0634 
    137 H137       31.6120   25.9192    4.5026 H         1 UNK         0.0634 
@<TRIPOS>BOND
     1    1    2 1    
     2    1   72 1    
     3    1   73 1    
     4    1   74 1    
     5    2    3 2    
     6    2    4 am   BACKBONE|DICT|INTERRES
     7    4    5 1    
     8    4   75 1    
     9    5    6 1    
    10    5   35 1    
    11    5   76 1    
    12    6    7 1    
    13    6   77 1    
    14    6   78 1    
    15    7    8 1    
    16    8    9 1    
    17    8   79 1    
    18    8   80 1    
    19    9   10 ar   
    20    9   14 ar   
    21   10   11 ar   
    22   10   81 1    
    23   11   12 ar   
    24   11   71 1    
    25   12   13 ar   
    26   12   82 1    
    27   13   14 ar   
    28   13   15 1    
    29   14   83 1    
    30   15   16 1    
    31   15   84 1    
    32   15   85 1    
    33   16   17 1    
    34   17   18 1    
    35   17   86 1    
    36   17   87 1    
    37   18   19 1    
    38   18   37 1    
    39   18   88 1    
    40   19   20 am   BACKBONE|DICT|INTERRES
    41   19   89 1    
    42   20   21 2    
    43   20   22 1    
    44   22   23 1    
    45   22   24 1    
    46   22   90 1    
    47   23   91 1    
    48   23   92 1    
    49   23   93 1    
    50   24   25 am   BACKBONE|DICT|INTERRES
    51   24   94 1    
    52   25   26 2    
    53   25   27 1    
    54   27   28 1    
    55   27   29 1    
    56   27   95 1    
    57   28   96 1    
    58   28   97 1    
    59   28   98 1    
    60   29   30 am   BACKBONE|DICT|INTERRES
    61   29   99 1    
    62   30   31 2    
    63   30   32 1    
    64   32   33 1    
    65   32   34 1    
    66   32  100 1    
    67   33  101 1    
    68   33  102 1    
    69   33  103 1    
    70   34   35 am   BACKBONE|DICT|INTERRES
    71   34  104 1    
    72   35   36 2    
    73   37   38 2    
    74   37   39 am   BACKBONE|DICT|INTERRES
    75   39   40 1    
    76   39  105 1    
    77   40   41 1    
    78   40   42 1    
    79   40  106 1    
    80   41  107 1    
    81   41  108 1    
    82   41  109 1    
    83   42   43 2    
    84   42   44 am   BACKBONE|DICT|INTERRES
    85   44   45 1    
    86   44  110 1    
    87   45   46 1    
    88   45   47 1    
    89   45  111 1    
    90   46  112 1    
    91   46  113 1    
    92   46  114 1    
    93   47   48 2    
    94   47   49 am   BACKBONE|DICT|INTERRES
    95   49   50 1    
    96   49  115 1    
    97   50   51 1    
    98   50   52 1    
    99   50  116 1    
   100   51  117 1    
   101   51  118 1    
   102   51  119 1    
   103   52   53 2    
   104   52   54 am   BACKBONE|DICT|INTERRES
   105   54   55 1    
   106   54  120 1    
   107   55   56 1    
   108   55   57 1    
   109   55  121 1    
   110   56  122 1    
   111   56  123 1    
   112   56  124 1    
   113   57   58 2    
   114   57   59 am   BACKBONE|DICT|INTERRES
   115   59   60 1    
   116   59  125 1    
   117   60   61 1    
   118   60   62 1    
   119   60  126 1    
   120   61  127 1    
   121   61  128 1    
   122   61  129 1    
   123   62   63 2    
   124   62   64 am   BACKBONE|DICT|INTERRES
   125   64   65 1    
   126   64  130 1    
   127   65   66 1    
   128   65   69 1    
   129   65  131 1    
   130   66   67 am   BACKBONE|DICT|INTERRES
   131   66   68 2    
   132   67  132 1    
   133   67  133 1    
   134   69   70 1    
   135   69  134 1    
   136   69  135 1    
   137   70   71 1    
   138   71  136 1    
   139   71  137 1    
@<TRIPOS>SUBSTRUCTURE
     1 UNK         1 GROUP             0       ****    0 ROOT    
