@<TRIPOS>MOLECULE
3R136
137   139    1
SMALL
USER_CHARGES


@<TRIPOS>ATOM
      1 CA         29.5896   18.3146    3.8297 C.3       0 UNK        -0.1979 
      2 C          29.6460   19.5665    2.9659 C.2       0 UNK         0.4864 
      3 O          29.5262   20.6716    3.4967 O.2       0 UNK        -0.5359 
      4 N          29.8377   19.3887    1.6494 N.am      1 UNK        -0.4318 
      5 CA         29.8703   20.4198    0.6012 C.3       1 UNK         0.0824 
      6 C6         30.8709   21.5718    0.9089 C.3       12 UNK        -0.0944 
      7 S7         31.5394   22.3667   -0.5904 S.3       12 UNK        -0.2672 
      8 C8         32.7491   23.5185    0.1337 C.3       12 UNK         0.0333 
      9 C9         32.0785   24.6934    0.8327 C.ar      12 UNK        -0.0807 
     10 C10        31.8975   24.6827    2.2189 C.ar      12 UNK        -0.0894 
     11 C11        31.3141   25.7754    2.8674 C.ar      12 UNK        -0.0804 
     12 C12        30.8863   26.8750    2.1177 C.ar      12 UNK        -0.0824 
     13 C13        31.0702   26.9018    0.7322 C.ar      12 UNK        -0.0762 
     14 C14        31.6690   25.8089    0.0961 C.ar      12 UNK        -0.0782 
     15 C15        30.6316   28.1137   -0.0753 C.3       12 UNK         0.0230 
     16 S16        29.2680   27.6732   -1.1906 S.3       12 UNK        -0.2608 
     17 C17        28.5690   29.3012   -1.6433 C.3       12 UNK        -0.0989 
     18 CA         27.3270   29.7035   -0.8022 C.3       5 UNK         0.0716 
     19 N          26.4215   28.5664   -0.6151 N.am      5 UNK        -0.4135 
     20 C          25.1865   28.5883   -0.0993 C.2       4 UNK         0.5031 
     21 O          24.5577   29.6196    0.1389 O.2       4 UNK        -0.5229 
     22 CA         24.5673   27.2186    0.2484 C.3       4 UNK         0.0329 
     23 CB         23.5978   26.7690   -0.8561 C.3       4 UNK        -0.2001 
     24 N          25.5632   26.1604    0.4737 N.am      4 UNK        -0.4303 
     25 C          26.4979   26.1579    1.4353 C.2       3 UNK         0.5044 
     26 O          26.5791   27.0459    2.2838 O.2       3 UNK        -0.5152 
     27 CA         27.5456   25.0239    1.4424 C.3       3 UNK         0.0319 
     28 CB         27.8593   24.5490    2.8727 C.3       3 UNK        -0.2001 
     29 N          27.2402   23.8488    0.6197 N.am      3 UNK        -0.4354 
     30 C          27.2235   23.7867   -0.7182 C.2       2 UNK         0.4964 
     31 O          27.2770   24.7765   -1.4478 O.2       2 UNK        -0.5047 
     32 CA         27.1720   22.3733   -1.3274 C.3       2 UNK         0.0288 
     33 CB         27.1190   22.3887   -2.8668 C.3       2 UNK        -0.2113 
     34 N          28.3501   21.6161   -0.8991 N.am      2 UNK        -0.4145 
     35 C          28.4603   20.9541    0.2595 C.2       1 UNK         0.5006 
     36 O          27.5123   20.8031    1.0354 O.2       1 UNK        -0.5103 
     37 C          27.7345   30.3932    0.5217 C.2       5 UNK         0.5055 
     38 O          28.0940   31.5714    0.4838 O.2       5 UNK        -0.5220 
     39 N          27.6578   29.6693    1.6521 N.am      6 UNK        -0.4450 
     40 CA         27.8317   30.1287    3.0326 C.3       6 UNK         0.0367 
     41 CB         26.5484   30.8539    3.4967 C.3       6 UNK        -0.1929 
     42 C          29.1257   30.9356    3.2504 C.2       6 UNK         0.5070 
     43 O          30.2125   30.3736    3.1159 O.2       6 UNK        -0.5237 
     44 N          28.9822   32.2328    3.5603 N.am      7 UNK        -0.4739 
     45 CA         30.0341   33.1997    3.9008 C.3       7 UNK         0.0276 
     46 CB         29.3659   34.5211    4.3188 C.3       7 UNK        -0.1927 
     47 C          31.1107   33.4486    2.8244 C.2       7 UNK         0.5013 
     48 O          32.0687   34.1735    3.0983 O.2       7 UNK        -0.5193 
     49 N          30.9702   32.8374    1.6396 N.am      8 UNK        -0.4253 
     50 CA         32.0324   32.7099    0.6382 C.3       8 UNK         0.0242 
     51 CB         31.4470   32.0873   -0.6377 C.3       8 UNK        -0.2000 
     52 C          33.2373   31.8818    1.1359 C.2       8 UNK         0.4948 
     53 O          34.3403   32.0686    0.6200 O.2       8 UNK        -0.5275 
     54 N          33.0162   31.0074    2.1270 N.am      9 UNK        -0.4246 
     55 CA         34.0448   30.2874    2.8737 C.3       9 UNK         0.0261 
     56 CB         33.8571   28.7808    2.6409 C.3       9 UNK        -0.1959 
     57 C          33.8971   30.6194    4.3662 C.2       9 UNK         0.5033 
     58 O          32.8467   31.1079    4.7899 O.2       9 UNK        -0.5390 
     59 N          34.9359   30.3102    5.1554 N.am      10 UNK        -0.4215 
     60 CA         34.9821   30.5349    6.6088 C.3       10 UNK         0.0240 
     61 CB         36.3789   30.1673    7.1359 C.3       10 UNK        -0.1982 
     62 C          33.8926   29.7870    7.4038 C.2       10 UNK         0.4970 
     63 O          33.4806   30.2642    8.4617 O.2       10 UNK        -0.4916 
     64 N          33.4404   28.6470    6.8705 N.am      11 UNK        -0.4279 
     65 CA         32.2824   27.8744    7.3410 C.3       11 UNK         0.1003 
     66 C          30.8960   28.5087    7.0190 C.2       11 UNK         0.5709 
     67 N          30.8034   29.5871    6.2507 N.am      11 UNK        -0.7358 
     68 O          29.8763   28.0165    7.4957 O.2       11 UNK        -0.4999 
     69 C69        32.3709   26.3884    6.8910 C.3       12 UNK        -0.0954 
     70 S70        32.7998   26.1754    5.1294 S.3       12 UNK        -0.2268 
     71 C71        31.1900   25.7853    4.3821 C.3       12 UNK         0.0203 
     72 H72        29.7256   17.4059    3.2435 H         1 UNK         0.0888 
     73 H73        30.3703   18.3475    4.5892 H         1 UNK         0.0888 
     74 H74        28.6257   18.2512    4.3340 H         1 UNK         0.0888 
     75 H75        29.9069   18.4417    1.3029 H         1 UNK         0.3017 
     76 H76        30.2233   19.8902   -0.2855 H         1 UNK         0.0873 
     77 H77        30.4128   22.3295    1.5476 H         1 UNK         0.0745 
     78 H78        31.7232   21.1831    1.4687 H         1 UNK         0.0745 
     79 H79        33.3966   23.8907   -0.6616 H         1 UNK         0.0705 
     80 H80        33.3997   22.9796    0.8244 H         1 UNK         0.0705 
     81 H81        32.2313   23.8334    2.7993 H         1 UNK         0.1334 
     82 H82        30.4377   27.7232    2.6177 H         1 UNK         0.1417 
     83 H83        31.8096   25.8255   -0.9762 H         1 UNK         0.1562 
     84 H84        31.4726   28.4933   -0.6572 H         1 UNK         0.0748 
     85 H85        30.3215   28.9207    0.5897 H         1 UNK         0.0748 
     86 H86        28.2709   29.2311   -2.6906 H         1 UNK         0.0940 
     87 H87        29.3430   30.0695   -1.6238 H         1 UNK         0.0940 
     88 H88        26.7737   30.4547   -1.3697 H         1 UNK         0.0703 
     89 H89        26.8396   27.6637   -0.7977 H         1 UNK         0.3081 
     90 H90        24.0025   27.3439    1.1745 H         1 UNK         0.0719 
     91 H91        24.1139   26.6006   -1.8023 H         1 UNK         0.0809 
     92 H92        23.0853   25.8463   -0.5834 H         1 UNK         0.0809 
     93 H93        22.8300   27.5237   -1.0329 H         1 UNK         0.0809 
     94 H94        25.6250   25.4346   -0.2284 H         1 UNK         0.2990 
     95 H95        28.4597   25.4624    1.0374 H         1 UNK         0.0690 
     96 H96        28.6653   23.8142    2.8789 H         1 UNK         0.0788 
     97 H97        26.9874   24.0970    3.3465 H         1 UNK         0.0788 
     98 H98        28.1829   25.3778    3.5038 H         1 UNK         0.0788 
     99 H99        27.1646   22.9698    1.1183 H         1 UNK         0.2993 
    100 H100       26.2643   21.8864   -0.9637 H         1 UNK         0.0949 
    101 H101       27.9979   22.8702   -3.2978 H         1 UNK         0.0767 
    102 H102       27.0587   21.3779   -3.2707 H         1 UNK         0.0767 
    103 H103       26.2418   22.9316   -3.2216 H         1 UNK         0.0767 
    104 H104       29.1901   21.7531   -1.4457 H         1 UNK         0.3013 
    105 H105       27.3601   28.7010    1.5815 H         1 UNK         0.3121 
    106 H106       27.9377   29.2289    3.6408 H         1 UNK         0.0774 
    107 H107       26.6211   31.1663    4.5394 H         1 UNK         0.0815 
    108 H108       26.3310   31.7354    2.8923 H         1 UNK         0.0815 
    109 H109       25.6852   30.1916    3.4254 H         1 UNK         0.0815 
    110 H110       28.0384   32.5904    3.5910 H         1 UNK         0.2987 
    111 H111       30.5648   32.7971    4.7664 H         1 UNK         0.0949 
    112 H112       30.1080   35.2555    4.6351 H         1 UNK         0.0806 
    113 H113       28.8006   34.9626    3.4971 H         1 UNK         0.0806 
    114 H114       28.6850   34.3754    5.1576 H         1 UNK         0.0806 
    115 H115       30.1359   32.2821    1.4941 H         1 UNK         0.3010 
    116 H116       32.3937   33.7129    0.4021 H         1 UNK         0.0829 
    117 H117       30.6111   32.6727   -1.0217 H         1 UNK         0.0813 
    118 H118       32.1981   32.0335   -1.4270 H         1 UNK         0.0813 
    119 H119       31.0927   31.0740   -0.4540 H         1 UNK         0.0813 
    120 H120       32.0841   30.9483    2.5317 H         1 UNK         0.3038 
    121 H121       35.0428   30.5867    2.5472 H         1 UNK         0.0769 
    122 H122       32.9097   28.4372    3.0546 H         1 UNK         0.0811 
    123 H123       34.6491   28.2011    3.1159 H         1 UNK         0.0811 
    124 H124       33.8664   28.5346    1.5790 H         1 UNK         0.0811 
    125 H125       35.7604   29.9046    4.7353 H         1 UNK         0.3204 
    126 H126       34.8240   31.6023    6.7773 H         1 UNK         0.0748 
    127 H127       36.4517   30.3493    8.2092 H         1 UNK         0.0771 
    128 H128       36.6102   29.1146    6.9678 H         1 UNK         0.0771 
    129 H129       37.1551   30.7639    6.6561 H         1 UNK         0.0771 
    130 H130       33.8346   28.3329    5.9966 H         1 UNK         0.2980 
    131 H131       32.3323   27.8689    8.4314 H         1 UNK         0.0545 
    132 H132       31.6187   30.0152    5.8224 H         1 UNK         0.3459 
    133 H133       29.8934   29.9727    6.0672 H         1 UNK         0.3459 
    134 H134       31.4559   25.8398    7.1222 H         1 UNK         0.0616 
    135 H135       33.1548   25.8938    7.4663 H         1 UNK         0.0616 
    136 H136       30.4494   26.5205    4.7006 H         1 UNK         0.0634 
    137 H137       30.8446   24.8133    4.7373 H         1 UNK         0.0634 
@<TRIPOS>BOND
     1    1    2 1    
     2    1   72 1    
     3    1   73 1    
     4    1   74 1    
     5    2    3 2    
     6    2    4 am   BACKBONE|DICT|INTERRES
     7    4    5 1    
     8    4   75 1    
     9    5    6 1    
    10    5   35 1    
    11    5   76 1    
    12    6    7 1    
    13    6   77 1    
    14    6   78 1    
    15    7    8 1    
    16    8    9 1    
    17    8   79 1    
    18    8   80 1    
    19    9   10 ar   
    20    9   14 ar   
    21   10   11 ar   
    22   10   81 1    
    23   11   12 ar   
    24   11   71 1    
    25   12   13 ar   
    26   12   82 1    
    27   13   14 ar   
    28   13   15 1    
    29   14   83 1    
    30   15   16 1    
    31   15   84 1    
    32   15   85 1    
    33   16   17 1    
    34   17   18 1    
    35   17   86 1    
    36   17   87 1    
    37   18   19 1    
    38   18   37 1    
    39   18   88 1    
    40   19   20 am   BACKBONE|DICT|INTERRES
    41   19   89 1    
    42   20   21 2    
    43   20   22 1    
    44   22   23 1    
    45   22   24 1    
    46   22   90 1    
    47   23   91 1    
    48   23   92 1    
    49   23   93 1    
    50   24   25 am   BACKBONE|DICT|INTERRES
    51   24   94 1    
    52   25   26 2    
    53   25   27 1    
    54   27   28 1    
    55   27   29 1    
    56   27   95 1    
    57   28   96 1    
    58   28   97 1    
    59   28   98 1    
    60   29   30 am   BACKBONE|DICT|INTERRES
    61   29   99 1    
    62   30   31 2    
    63   30   32 1    
    64   32   33 1    
    65   32   34 1    
    66   32  100 1    
    67   33  101 1    
    68   33  102 1    
    69   33  103 1    
    70   34   35 am   BACKBONE|DICT|INTERRES
    71   34  104 1    
    72   35   36 2    
    73   37   38 2    
    74   37   39 am   BACKBONE|DICT|INTERRES
    75   39   40 1    
    76   39  105 1    
    77   40   41 1    
    78   40   42 1    
    79   40  106 1    
    80   41  107 1    
    81   41  108 1    
    82   41  109 1    
    83   42   43 2    
    84   42   44 am   BACKBONE|DICT|INTERRES
    85   44   45 1    
    86   44  110 1    
    87   45   46 1    
    88   45   47 1    
    89   45  111 1    
    90   46  112 1    
    91   46  113 1    
    92   46  114 1    
    93   47   48 2    
    94   47   49 am   BACKBONE|DICT|INTERRES
    95   49   50 1    
    96   49  115 1    
    97   50   51 1    
    98   50   52 1    
    99   50  116 1    
   100   51  117 1    
   101   51  118 1    
   102   51  119 1    
   103   52   53 2    
   104   52   54 am   BACKBONE|DICT|INTERRES
   105   54   55 1    
   106   54  120 1    
   107   55   56 1    
   108   55   57 1    
   109   55  121 1    
   110   56  122 1    
   111   56  123 1    
   112   56  124 1    
   113   57   58 2    
   114   57   59 am   BACKBONE|DICT|INTERRES
   115   59   60 1    
   116   59  125 1    
   117   60   61 1    
   118   60   62 1    
   119   60  126 1    
   120   61  127 1    
   121   61  128 1    
   122   61  129 1    
   123   62   63 2    
   124   62   64 am   BACKBONE|DICT|INTERRES
   125   64   65 1    
   126   64  130 1    
   127   65   66 1    
   128   65   69 1    
   129   65  131 1    
   130   66   67 am   BACKBONE|DICT|INTERRES
   131   66   68 2    
   132   67  132 1    
   133   67  133 1    
   134   69   70 1    
   135   69  134 1    
   136   69  135 1    
   137   70   71 1    
   138   71  136 1    
   139   71  137 1    
@<TRIPOS>SUBSTRUCTURE
     1 UNK         1 GROUP             0       ****    0 ROOT    
