@<TRIPOS>MOLECULE
3R136
137   139    1
SMALL
USER_CHARGES


@<TRIPOS>ATOM
      1 CA         25.0438   24.0588   -0.2098 C.3       0 UNK        -0.1979 
      2 C          26.3526   23.3084   -0.4066 C.2       0 UNK         0.4864 
      3 O          26.5502   22.6842   -1.4500 O.2       0 UNK        -0.5359 
      4 N          27.2438   23.3558    0.5926 N.am      1 UNK        -0.4318 
      5 CA         28.5815   22.7598    0.5627 C.3       1 UNK         0.0824 
      6 C6         29.1794   22.6986    1.9873 C.3       12 UNK        -0.0944 
      7 S7         30.6763   21.6620    2.0878 S.3       12 UNK        -0.2672 
      8 C8         30.6972   21.2531    3.8610 C.3       12 UNK         0.0333 
      9 C9         30.7644   22.5017    4.7291 C.ar      12 UNK        -0.0807 
     10 C10        31.9781   23.1707    4.9077 C.ar      12 UNK        -0.0894 
     11 C11        32.0465   24.3123    5.7115 C.ar      12 UNK        -0.0804 
     12 C12        30.8888   24.7844    6.3400 C.ar      12 UNK        -0.0824 
     13 C13        29.6665   24.1300    6.1573 C.ar      12 UNK        -0.0762 
     14 C14        29.6127   22.9863    5.3560 C.ar      12 UNK        -0.0782 
     15 C15        28.4016   24.6360    6.8354 C.3       12 UNK         0.0230 
     16 S16        27.3758   25.6247    5.6995 S.3       12 UNK        -0.2608 
     17 C17        28.2376   27.2334    5.7122 C.3       12 UNK        -0.0989 
     18 CA         29.0743   27.4794    4.4301 C.3       5 UNK         0.0716 
     19 N          28.2260   27.4294    3.2289 N.am      5 UNK        -0.4135 
     20 C          28.6252   27.5542    1.9563 C.2       4 UNK         0.5031 
     21 O          29.7912   27.7614    1.6115 O.2       4 UNK        -0.5229 
     22 CA         27.5298   27.4384    0.8845 C.3       4 UNK         0.0329 
     23 CB         26.5632   28.6399    0.9443 C.3       4 UNK        -0.2001 
     24 N          28.1943   27.3514   -0.4128 N.am      4 UNK        -0.4303 
     25 C          27.6379   27.1318   -1.6096 C.2       3 UNK         0.5044 
     26 O          26.4300   26.9922   -1.8002 O.2       3 UNK        -0.5152 
     27 CA         28.6083   26.9799   -2.7862 C.3       3 UNK         0.0319 
     28 CB         29.5024   28.2177   -2.9784 C.3       3 UNK        -0.2001 
     29 N          29.4285   25.8043   -2.5298 N.am      3 UNK        -0.4354 
     30 C          29.6920   24.8141   -3.3843 C.2       2 UNK         0.4964 
     31 O          29.3996   24.8380   -4.5803 O.2       2 UNK        -0.5047 
     32 CA         30.3717   23.5638   -2.7936 C.3       2 UNK         0.0288 
     33 CB         31.8623   23.8177   -2.4979 C.3       2 UNK        -0.2113 
     34 N          29.6714   23.0032   -1.6249 N.am      2 UNK        -0.4145 
     35 C          29.4753   23.5499   -0.4138 C.2       1 UNK         0.5006 
     36 O          29.9093   24.6518   -0.0710 O.2       1 UNK        -0.5103 
     37 C          29.8832   28.7912    4.5661 C.2       5 UNK         0.5055 
     38 O          29.6142   29.7634    3.8581 O.2       5 UNK        -0.5220 
     39 N          30.8498   28.7927    5.4972 N.am      6 UNK        -0.4450 
     40 CA         31.8529   29.8362    5.7571 C.3       6 UNK         0.0367 
     41 CB         32.5288   29.5706    7.1140 C.3       6 UNK        -0.1929 
     42 C          31.3464   31.2869    5.6987 C.2       6 UNK         0.5070 
     43 O          31.9052   32.0975    4.9600 O.2       6 UNK        -0.5237 
     44 N          30.2817   31.5746    6.4564 N.am      7 UNK        -0.4739 
     45 CA         29.6700   32.9030    6.5501 C.3       7 UNK         0.0276 
     46 CB         28.8037   32.9587    7.8196 C.3       7 UNK        -0.1927 
     47 C          28.8385   33.3035    5.3167 C.2       7 UNK         0.5013 
     48 O          28.5311   34.4874    5.1696 O.2       7 UNK        -0.5193 
     49 N          28.4659   32.3287    4.4779 N.am      8 UNK        -0.4253 
     50 CA         27.6205   32.5189    3.3022 C.3       8 UNK         0.0242 
     51 CB         26.5901   31.3806    3.2296 C.3       8 UNK        -0.2000 
     52 C          28.4514   32.6002    2.0146 C.2       8 UNK         0.4948 
     53 O          28.2572   33.5405    1.2428 O.2       8 UNK        -0.5275 
     54 N          29.3513   31.6306    1.7948 N.am      9 UNK        -0.4246 
     55 CA         30.1621   31.5268    0.5778 C.3       9 UNK         0.0261 
     56 CB         29.3285   30.9511   -0.5846 C.3       9 UNK        -0.1959 
     57 C          31.4727   30.7561    0.8062 C.2       9 UNK         0.5033 
     58 O          31.8928   29.9960   -0.0694 O.2       9 UNK        -0.5390 
     59 N          32.1188   30.9853    1.9599 N.am      10 UNK        -0.4215 
     60 CA         33.4928   30.5713    2.2873 C.3       10 UNK         0.0240 
     61 CB         34.4983   31.3704    1.4290 C.3       10 UNK        -0.1982 
     62 C          33.7653   29.0510    2.2344 C.2       10 UNK         0.4970 
     63 O          34.9183   28.6609    2.0419 O.2       10 UNK        -0.4916 
     64 N          32.7222   28.2264    2.4079 N.am      11 UNK        -0.4279 
     65 CA         32.7593   26.7553    2.2894 C.3       11 UNK         0.1003 
     66 C          32.9566   26.2625    0.8218 C.2       11 UNK         0.5709 
     67 N          32.6920   27.0803   -0.1936 N.am      11 UNK        -0.7358 
     68 O          33.3611   25.1247    0.5941 O.2       11 UNK        -0.4999 
     69 C69        33.7269   26.0597    3.2964 C.3       12 UNK        -0.0954 
     70 S70        33.4791   26.5912    5.0247 S.3       12 UNK        -0.2268 
     71 C71        33.3774   25.0164    5.9279 C.3       12 UNK         0.0203 
     72 H72        25.0115   24.5822    0.7455 H         1 UNK         0.0888 
     73 H73        24.9127   24.7952   -1.0023 H         1 UNK         0.0888 
     74 H74        24.2041   23.3653   -0.2464 H         1 UNK         0.0888 
     75 H75        27.0240   23.8842    1.4238 H         1 UNK         0.3017 
     76 H76        28.4798   21.7351    0.1978 H         1 UNK         0.0873 
     77 H77        29.4092   23.6966    2.3677 H         1 UNK         0.0745 
     78 H78        28.4385   22.2777    2.6689 H         1 UNK         0.0745 
     79 H79        31.5591   20.6170    4.0676 H         1 UNK         0.0705 
     80 H80        29.8150   20.6591    4.1049 H         1 UNK         0.0705 
     81 H81        32.8691   22.7979    4.4210 H         1 UNK         0.1334 
     82 H82        30.9433   25.6584    6.9736 H         1 UNK         0.1417 
     83 H83        28.6690   22.4759    5.2184 H         1 UNK         0.1562 
     84 H84        28.6409   25.2148    7.7288 H         1 UNK         0.0748 
     85 H85        27.8134   23.7848    7.1815 H         1 UNK         0.0748 
     86 H86        28.8548   27.2896    6.6103 H         1 UNK         0.0940 
     87 H87        27.4841   28.0156    5.8262 H         1 UNK         0.0940 
     88 H88        29.8026   26.6721    4.3279 H         1 UNK         0.0703 
     89 H89        27.2468   27.2680    3.4091 H         1 UNK         0.3081 
     90 H90        26.9789   26.5110    1.0485 H         1 UNK         0.0719 
     91 H91        27.0878   29.5876    0.8265 H         1 UNK         0.0809 
     92 H92        25.7968   28.5877    0.1719 H         1 UNK         0.0809 
     93 H93        26.0369   28.6719    1.8981 H         1 UNK         0.0809 
     94 H94        29.2031   27.4247   -0.3299 H         1 UNK         0.2990 
     95 H95        28.0126   26.8349   -3.6901 H         1 UNK         0.0690 
     96 H96        30.1171   28.1192   -3.8731 H         1 UNK         0.0788 
     97 H97        30.1748   28.3762   -2.1340 H         1 UNK         0.0788 
     98 H98        28.9000   29.1191   -3.0967 H         1 UNK         0.0788 
     99 H99        29.6688   25.6272   -1.5544 H         1 UNK         0.2993 
    100 H100       30.3219   22.7922   -3.5638 H         1 UNK         0.0949 
    101 H101       32.0024   24.5852   -1.7374 H         1 UNK         0.0767 
    102 H102       32.3569   22.9111   -2.1495 H         1 UNK         0.0767 
    103 H103       32.3860   24.1509   -3.3947 H         1 UNK         0.0767 
    104 H104       29.1944   22.1305   -1.8082 H         1 UNK         0.3013 
    105 H105       30.9919   27.9396    6.0166 H         1 UNK         0.3121 
    106 H106       32.6153   29.7263    4.9878 H         1 UNK         0.0774 
    107 H107       33.2831   30.3288    7.3299 H         1 UNK         0.0815 
    108 H108       31.8114   29.5830    7.9353 H         1 UNK         0.0815 
    109 H109       33.0357   28.6066    7.1312 H         1 UNK         0.0815 
    110 H110       29.8732   30.8401    7.0164 H         1 UNK         0.2987 
    111 H111       30.4688   33.6416    6.6502 H         1 UNK         0.0949 
    112 H112       28.3589   33.9467    7.9468 H         1 UNK         0.0806 
    113 H113       27.9870   32.2366    7.7833 H         1 UNK         0.0806 
    114 H114       29.3942   32.7556    8.7133 H         1 UNK         0.0806 
    115 H115       28.8365   31.3948    4.6193 H         1 UNK         0.3010 
    116 H116       27.0643   33.4548    3.3914 H         1 UNK         0.0829 
    117 H117       25.9081   31.4146    4.0792 H         1 UNK         0.0813 
    118 H118       25.9847   31.4549    2.3253 H         1 UNK         0.0813 
    119 H119       27.0689   30.4021    3.2303 H         1 UNK         0.0813 
    120 H120       29.4589   30.8849    2.4843 H         1 UNK         0.3038 
    121 H121       30.4725   32.5341    0.2923 H         1 UNK         0.0769 
    122 H122       29.8911   30.9786   -1.5184 H         1 UNK         0.0811 
    123 H123       28.4099   31.5141   -0.7477 H         1 UNK         0.0811 
    124 H124       29.0614   29.9138   -0.3966 H         1 UNK         0.0811 
    125 H125       31.6797   31.5898    2.6439 H         1 UNK         0.3204 
    126 H126       33.6626   30.8683    3.3214 H         1 UNK         0.0748 
    127 H127       35.5238   31.2006    1.7596 H         1 UNK         0.0771 
    128 H128       34.4442   31.0871    0.3772 H         1 UNK         0.0771 
    129 H129       34.3147   32.4427    1.4977 H         1 UNK         0.0771 
    130 H130       31.7932   28.6229    2.4610 H         1 UNK         0.2980 
    131 H131       31.7584   26.4173    2.5553 H         1 UNK         0.0545 
    132 H132       32.8307   26.7552   -1.1350 H         1 UNK         0.3459 
    133 H133       32.3665   28.0271   -0.0261 H         1 UNK         0.3459 
    134 H134       34.7673   26.2480    3.0295 H         1 UNK         0.0616 
    135 H135       33.5993   24.9779    3.2422 H         1 UNK         0.0616 
    136 H136       33.5054   25.2176    6.9924 H         1 UNK         0.0634 
    137 H137       34.2128   24.3775    5.6371 H         1 UNK         0.0634 
@<TRIPOS>BOND
     1    1    2 1    
     2    1   72 1    
     3    1   73 1    
     4    1   74 1    
     5    2    3 2    
     6    2    4 am   BACKBONE|DICT|INTERRES
     7    4    5 1    
     8    4   75 1    
     9    5    6 1    
    10    5   35 1    
    11    5   76 1    
    12    6    7 1    
    13    6   77 1    
    14    6   78 1    
    15    7    8 1    
    16    8    9 1    
    17    8   79 1    
    18    8   80 1    
    19    9   10 ar   
    20    9   14 ar   
    21   10   11 ar   
    22   10   81 1    
    23   11   12 ar   
    24   11   71 1    
    25   12   13 ar   
    26   12   82 1    
    27   13   14 ar   
    28   13   15 1    
    29   14   83 1    
    30   15   16 1    
    31   15   84 1    
    32   15   85 1    
    33   16   17 1    
    34   17   18 1    
    35   17   86 1    
    36   17   87 1    
    37   18   19 1    
    38   18   37 1    
    39   18   88 1    
    40   19   20 am   BACKBONE|DICT|INTERRES
    41   19   89 1    
    42   20   21 2    
    43   20   22 1    
    44   22   23 1    
    45   22   24 1    
    46   22   90 1    
    47   23   91 1    
    48   23   92 1    
    49   23   93 1    
    50   24   25 am   BACKBONE|DICT|INTERRES
    51   24   94 1    
    52   25   26 2    
    53   25   27 1    
    54   27   28 1    
    55   27   29 1    
    56   27   95 1    
    57   28   96 1    
    58   28   97 1    
    59   28   98 1    
    60   29   30 am   BACKBONE|DICT|INTERRES
    61   29   99 1    
    62   30   31 2    
    63   30   32 1    
    64   32   33 1    
    65   32   34 1    
    66   32  100 1    
    67   33  101 1    
    68   33  102 1    
    69   33  103 1    
    70   34   35 am   BACKBONE|DICT|INTERRES
    71   34  104 1    
    72   35   36 2    
    73   37   38 2    
    74   37   39 am   BACKBONE|DICT|INTERRES
    75   39   40 1    
    76   39  105 1    
    77   40   41 1    
    78   40   42 1    
    79   40  106 1    
    80   41  107 1    
    81   41  108 1    
    82   41  109 1    
    83   42   43 2    
    84   42   44 am   BACKBONE|DICT|INTERRES
    85   44   45 1    
    86   44  110 1    
    87   45   46 1    
    88   45   47 1    
    89   45  111 1    
    90   46  112 1    
    91   46  113 1    
    92   46  114 1    
    93   47   48 2    
    94   47   49 am   BACKBONE|DICT|INTERRES
    95   49   50 1    
    96   49  115 1    
    97   50   51 1    
    98   50   52 1    
    99   50  116 1    
   100   51  117 1    
   101   51  118 1    
   102   51  119 1    
   103   52   53 2    
   104   52   54 am   BACKBONE|DICT|INTERRES
   105   54   55 1    
   106   54  120 1    
   107   55   56 1    
   108   55   57 1    
   109   55  121 1    
   110   56  122 1    
   111   56  123 1    
   112   56  124 1    
   113   57   58 2    
   114   57   59 am   BACKBONE|DICT|INTERRES
   115   59   60 1    
   116   59  125 1    
   117   60   61 1    
   118   60   62 1    
   119   60  126 1    
   120   61  127 1    
   121   61  128 1    
   122   61  129 1    
   123   62   63 2    
   124   62   64 am   BACKBONE|DICT|INTERRES
   125   64   65 1    
   126   64  130 1    
   127   65   66 1    
   128   65   69 1    
   129   65  131 1    
   130   66   67 am   BACKBONE|DICT|INTERRES
   131   66   68 2    
   132   67  132 1    
   133   67  133 1    
   134   69   70 1    
   135   69  134 1    
   136   69  135 1    
   137   70   71 1    
   138   71  136 1    
   139   71  137 1    
@<TRIPOS>SUBSTRUCTURE
     1 UNK         1 GROUP             0       ****    0 ROOT    
