@<TRIPOS>MOLECULE
3R136
137   139    1
SMALL
USER_CHARGES


@<TRIPOS>ATOM
      1 CA         34.8290   28.2222   -1.2892 C.3       0 UNK        -0.1979 
      2 C          33.6029   28.4700   -0.4249 C.2       0 UNK         0.4864 
      3 O          33.5003   29.5305    0.1913 O.2       0 UNK        -0.5359 
      4 N          32.6958   27.4915   -0.3501 N.am      1 UNK        -0.4318 
      5 CA         31.4046   27.5780    0.3378 C.3       1 UNK         0.0824 
      6 C6         31.0616   26.2734    1.1015 C.3       12 UNK        -0.0944 
      7 S7         31.3351   24.7245    0.1737 S.3       12 UNK        -0.2672 
      8 C8         32.2801   23.7538    1.3932 C.3       12 UNK         0.0333 
      9 C9         31.4868   23.5304    2.6750 C.ar      12 UNK        -0.0807 
     10 C10        31.9247   24.0761    3.8853 C.ar      12 UNK        -0.0894 
     11 C11        31.1927   23.8819    5.0650 C.ar      12 UNK        -0.0804 
     12 C12        30.0113   23.1314    5.0100 C.ar      12 UNK        -0.0824 
     13 C13        29.5553   22.5824    3.8059 C.ar      12 UNK        -0.0762 
     14 C14        30.3132   22.7747    2.6455 C.ar      12 UNK        -0.0782 
     15 C15        28.2781   21.7413    3.7947 C.3       12 UNK         0.0230 
     16 S16        27.3264   21.8295    2.2347 S.3       12 UNK        -0.2608 
     17 C17        26.0788   23.1207    2.5575 C.3       12 UNK        -0.0989 
     18 CA         26.4502   24.5011    1.9333 C.3       5 UNK         0.0716 
     19 N          25.4534   25.0611    1.0144 N.am      5 UNK        -0.4135 
     20 C          24.1302   25.2032    1.1920 C.2       4 UNK         0.5031 
     21 O          23.5063   24.7235    2.1402 O.2       4 UNK        -0.5229 
     22 CA         23.3511   26.0325    0.1465 C.3       4 UNK         0.0329 
     23 CB         22.6694   27.2407    0.8126 C.3       4 UNK        -0.2001 
     24 N          24.1788   26.5209   -0.9599 N.am      4 UNK        -0.4303 
     25 C          24.5897   25.7901   -2.0051 C.2       3 UNK         0.5044 
     26 O          24.2410   24.6265   -2.2049 O.2       3 UNK        -0.5152 
     27 CA         25.5858   26.4584   -2.9745 C.3       3 UNK         0.0319 
     28 CB         24.8509   26.9865   -4.2172 C.3       3 UNK        -0.2001 
     29 N          26.3783   27.5473   -2.3835 N.am      3 UNK        -0.4354 
     30 C          27.2244   27.4154   -1.3515 C.2       2 UNK         0.4964 
     31 O          27.3982   26.3557   -0.7447 O.2       2 UNK        -0.5047 
     32 CA         27.9339   28.6980   -0.8856 C.3       2 UNK         0.0288 
     33 CB         26.9964   29.5380   -0.0013 C.3       2 UNK        -0.2113 
     34 N          29.1418   28.3890   -0.1220 N.am      2 UNK        -0.4145 
     35 C          30.2953   27.9719   -0.6586 C.2       1 UNK         0.5006 
     36 O          30.4921   27.8939   -1.8758 O.2       1 UNK        -0.5103 
     37 C          26.8426   25.5460    2.9961 C.2       5 UNK         0.5055 
     38 O          26.0071   26.3421    3.4332 O.2       5 UNK        -0.5220 
     39 N          28.1193   25.5066    3.3957 N.am      6 UNK        -0.4450 
     40 CA         28.7844   26.4259    4.3233 C.3       6 UNK         0.0367 
     41 CB         28.2049   26.2835    5.7495 C.3       6 UNK        -0.1929 
     42 C          28.8207   27.8812    3.8136 C.2       6 UNK         0.5070 
     43 O          28.6658   28.1158    2.6134 O.2       6 UNK        -0.5237 
     44 N          29.0703   28.8281    4.7287 N.am      7 UNK        -0.4739 
     45 CA         29.2031   30.2687    4.4842 C.3       7 UNK         0.0276 
     46 CB         27.8365   30.8615    4.0662 C.3       7 UNK        -0.1927 
     47 C          30.3503   30.6141    3.5068 C.2       7 UNK         0.5013 
     48 O          31.3019   29.8362    3.3698 O.2       7 UNK        -0.5193 
     49 N          30.2405   31.7935    2.8775 N.am      8 UNK        -0.4253 
     50 CA         31.1632   32.3788    1.9022 C.3       8 UNK         0.0242 
     51 CB         31.0222   31.6674    0.5400 C.3       8 UNK        -0.2000 
     52 C          32.6021   32.4881    2.4465 C.2       8 UNK         0.4948 
     53 O          32.7837   33.0678    3.5193 O.2       8 UNK        -0.5275 
     54 N          33.5932   31.9741    1.7088 N.am      9 UNK        -0.4246 
     55 CA         35.0073   32.0401    2.0760 C.3       9 UNK         0.0261 
     56 CB         35.8658   32.0620    0.8001 C.3       9 UNK        -0.1959 
     57 C          35.4266   30.8765    2.9854 C.2       9 UNK         0.5033 
     58 O          36.2346   31.0880    3.8908 O.2       9 UNK        -0.5390 
     59 N          34.9008   29.6725    2.7188 N.am      10 UNK        -0.4215 
     60 CA         35.2854   28.4392    3.4105 C.3       10 UNK         0.0240 
     61 CB         34.7853   27.2124    2.6308 C.3       10 UNK        -0.1982 
     62 C          34.8062   28.3730    4.8668 C.2       10 UNK         0.4970 
     63 O          35.5967   28.0056    5.7373 O.2       10 UNK        -0.4916 
     64 N          33.5293   28.7001    5.0958 N.am      11 UNK        -0.4279 
     65 CA         32.8428   28.5374    6.3876 C.3       11 UNK         0.1003 
     66 C          32.0799   29.8209    6.8234 C.2       11 UNK         0.5709 
     67 N          32.4026   30.9943    6.2928 N.am      11 UNK        -0.7358 
     68 O          31.1882   29.7634    7.6664 O.2       11 UNK        -0.4999 
     69 C69        31.9582   27.2563    6.3981 C.3       12 UNK        -0.0954 
     70 S70        32.9402   25.7188    6.3831 S.3       12 UNK        -0.2268 
     71 C71        31.6502   24.4230    6.4239 C.3       12 UNK         0.0203 
     72 H72        35.7351   28.3350   -0.6947 H         1 UNK         0.0888 
     73 H73        34.8633   28.9454   -2.1034 H         1 UNK         0.0888 
     74 H74        34.8281   27.2216   -1.7213 H         1 UNK         0.0888 
     75 H75        32.8185   26.6512   -0.8973 H         1 UNK         0.3017 
     76 H76        31.4500   28.3734    1.0839 H         1 UNK         0.0873 
     77 H77        31.6519   26.2506    2.0168 H         1 UNK         0.0745 
     78 H78        30.0249   26.2702    1.4355 H         1 UNK         0.0745 
     79 H79        32.5377   22.7880    0.9565 H         1 UNK         0.0705 
     80 H80        33.2240   24.2616    1.5986 H         1 UNK         0.0705 
     81 H81        32.8433   24.6447    3.8988 H         1 UNK         0.1334 
     82 H82        29.4461   22.9656    5.9173 H         1 UNK         0.1417 
     83 H83        29.9945   22.3413    1.7073 H         1 UNK         0.1562 
     84 H84        27.6324   22.0100    4.6319 H         1 UNK         0.0748 
     85 H85        28.5646   20.7013    3.9558 H         1 UNK         0.0748 
     86 H86        25.8704   23.1897    3.6271 H         1 UNK         0.0940 
     87 H87        25.1565   22.7362    2.1215 H         1 UNK         0.0940 
     88 H88        27.3271   24.3706    1.2960 H         1 UNK         0.0703 
     89 H89        25.8711   25.5257    0.2145 H         1 UNK         0.3081 
     90 H90        22.5724   25.3849   -0.2620 H         1 UNK         0.0719 
     91 H91        23.3981   27.9170    1.2617 H         1 UNK         0.0809 
     92 H92        22.0772   27.8096    0.0956 H         1 UNK         0.0809 
     93 H93        21.9918   26.9210    1.6056 H         1 UNK         0.0809 
     94 H94        24.5144   27.4702   -0.8872 H         1 UNK         0.2990 
     95 H95        26.2860   25.6845   -3.2960 H         1 UNK         0.0690 
     96 H96        25.5506   27.3692   -4.9606 H         1 UNK         0.0788 
     97 H97        24.1547   27.7875   -3.9651 H         1 UNK         0.0788 
     98 H98        24.2751   26.1936   -4.6971 H         1 UNK         0.0788 
     99 H99        26.2780   28.4562   -2.8134 H         1 UNK         0.2993 
    100 H100       28.2159   29.2836   -1.7635 H         1 UNK         0.0949 
    101 H101       26.1059   29.8483   -0.5491 H         1 UNK         0.0767 
    102 H102       26.6645   28.9801    0.8761 H         1 UNK         0.0767 
    103 H103       27.4915   30.4438    0.3497 H         1 UNK         0.0767 
    104 H104       29.0250   28.3482    0.8919 H         1 UNK         0.3013 
    105 H105       28.7231   24.8074    2.9845 H         1 UNK         0.3121 
    106 H106       29.8212   26.0991    4.3422 H         1 UNK         0.0774 
    107 H107       27.2149   26.7342    5.8297 H         1 UNK         0.0815 
    108 H108       28.8441   26.7581    6.4938 H         1 UNK         0.0815 
    109 H109       28.1139   25.2362    6.0363 H         1 UNK         0.0815 
    110 H110       29.2096   28.5395    5.6861 H         1 UNK         0.2987 
    111 H111       29.4777   30.7138    5.4414 H         1 UNK         0.0949 
    112 H112       27.5621   30.5714    3.0510 H         1 UNK         0.0806 
    113 H113       27.0414   30.5221    4.7302 H         1 UNK         0.0806 
    114 H114       27.8368   31.9508    4.1123 H         1 UNK         0.0806 
    115 H115       29.4414   32.3668    3.1060 H         1 UNK         0.3010 
    116 H116       30.8357   33.4094    1.7572 H         1 UNK         0.0829 
    117 H117       30.0044   31.7541    0.1596 H         1 UNK         0.0813 
    118 H118       31.6803   32.0989   -0.2151 H         1 UNK         0.0813 
    119 H119       31.2454   30.6070    0.6171 H         1 UNK         0.0813 
    120 H120       33.3618   31.4070    0.8984 H         1 UNK         0.3038 
    121 H121       35.1949   32.9701    2.6175 H         1 UNK         0.0769 
    122 H122       35.7287   31.1610    0.2010 H         1 UNK         0.0811 
    123 H123       36.9265   32.1318    1.0454 H         1 UNK         0.0811 
    124 H124       35.6217   32.9202    0.1738 H         1 UNK         0.0811 
    125 H125       34.2565   29.5930    1.9350 H         1 UNK         0.3204 
    126 H126       36.3768   28.3957    3.4273 H         1 UNK         0.0748 
    127 H127       35.2616   27.1425    1.6536 H         1 UNK         0.0771 
    128 H128       35.0131   26.2879    3.1636 H         1 UNK         0.0771 
    129 H129       33.7064   27.2453    2.4838 H         1 UNK         0.0771 
    130 H130       32.9456   29.0347    4.3346 H         1 UNK         0.2980 
    131 H131       33.5872   28.4187    7.1765 H         1 UNK         0.0545 
    132 H132       31.9174   31.8232    6.5955 H         1 UNK         0.3459 
    133 H133       33.1290   31.0648    5.5981 H         1 UNK         0.3459 
    134 H134       31.3226   27.2213    7.2843 H         1 UNK         0.0616 
    135 H135       31.2982   27.2595    5.5345 H         1 UNK         0.0616 
    136 H136       30.7905   24.7974    6.9816 H         1 UNK         0.0634 
    137 H137       32.0437   23.5839    6.9989 H         1 UNK         0.0634 
@<TRIPOS>BOND
     1    1    2 1    
     2    1   72 1    
     3    1   73 1    
     4    1   74 1    
     5    2    3 2    
     6    2    4 am   BACKBONE|DICT|INTERRES
     7    4    5 1    
     8    4   75 1    
     9    5    6 1    
    10    5   35 1    
    11    5   76 1    
    12    6    7 1    
    13    6   77 1    
    14    6   78 1    
    15    7    8 1    
    16    8    9 1    
    17    8   79 1    
    18    8   80 1    
    19    9   10 ar   
    20    9   14 ar   
    21   10   11 ar   
    22   10   81 1    
    23   11   12 ar   
    24   11   71 1    
    25   12   13 ar   
    26   12   82 1    
    27   13   14 ar   
    28   13   15 1    
    29   14   83 1    
    30   15   16 1    
    31   15   84 1    
    32   15   85 1    
    33   16   17 1    
    34   17   18 1    
    35   17   86 1    
    36   17   87 1    
    37   18   19 1    
    38   18   37 1    
    39   18   88 1    
    40   19   20 am   BACKBONE|DICT|INTERRES
    41   19   89 1    
    42   20   21 2    
    43   20   22 1    
    44   22   23 1    
    45   22   24 1    
    46   22   90 1    
    47   23   91 1    
    48   23   92 1    
    49   23   93 1    
    50   24   25 am   BACKBONE|DICT|INTERRES
    51   24   94 1    
    52   25   26 2    
    53   25   27 1    
    54   27   28 1    
    55   27   29 1    
    56   27   95 1    
    57   28   96 1    
    58   28   97 1    
    59   28   98 1    
    60   29   30 am   BACKBONE|DICT|INTERRES
    61   29   99 1    
    62   30   31 2    
    63   30   32 1    
    64   32   33 1    
    65   32   34 1    
    66   32  100 1    
    67   33  101 1    
    68   33  102 1    
    69   33  103 1    
    70   34   35 am   BACKBONE|DICT|INTERRES
    71   34  104 1    
    72   35   36 2    
    73   37   38 2    
    74   37   39 am   BACKBONE|DICT|INTERRES
    75   39   40 1    
    76   39  105 1    
    77   40   41 1    
    78   40   42 1    
    79   40  106 1    
    80   41  107 1    
    81   41  108 1    
    82   41  109 1    
    83   42   43 2    
    84   42   44 am   BACKBONE|DICT|INTERRES
    85   44   45 1    
    86   44  110 1    
    87   45   46 1    
    88   45   47 1    
    89   45  111 1    
    90   46  112 1    
    91   46  113 1    
    92   46  114 1    
    93   47   48 2    
    94   47   49 am   BACKBONE|DICT|INTERRES
    95   49   50 1    
    96   49  115 1    
    97   50   51 1    
    98   50   52 1    
    99   50  116 1    
   100   51  117 1    
   101   51  118 1    
   102   51  119 1    
   103   52   53 2    
   104   52   54 am   BACKBONE|DICT|INTERRES
   105   54   55 1    
   106   54  120 1    
   107   55   56 1    
   108   55   57 1    
   109   55  121 1    
   110   56  122 1    
   111   56  123 1    
   112   56  124 1    
   113   57   58 2    
   114   57   59 am   BACKBONE|DICT|INTERRES
   115   59   60 1    
   116   59  125 1    
   117   60   61 1    
   118   60   62 1    
   119   60  126 1    
   120   61  127 1    
   121   61  128 1    
   122   61  129 1    
   123   62   63 2    
   124   62   64 am   BACKBONE|DICT|INTERRES
   125   64   65 1    
   126   64  130 1    
   127   65   66 1    
   128   65   69 1    
   129   65  131 1    
   130   66   67 am   BACKBONE|DICT|INTERRES
   131   66   68 2    
   132   67  132 1    
   133   67  133 1    
   134   69   70 1    
   135   69  134 1    
   136   69  135 1    
   137   70   71 1    
   138   71  136 1    
   139   71  137 1    
@<TRIPOS>SUBSTRUCTURE
     1 UNK         1 GROUP             0       ****    0 ROOT    
