@<TRIPOS>MOLECULE
3R136
137   139    1
SMALL
USER_CHARGES


@<TRIPOS>ATOM
      1 CA         31.8723   25.7040   -1.7471 C.3       0 UNK        -0.1979 
      2 C          30.9990   24.5439   -1.2914 C.2       0 UNK         0.4864 
      3 O          30.9837   23.4999   -1.9452 O.2       0 UNK        -0.5359 
      4 N          30.2840   24.7218   -0.1731 N.am      1 UNK        -0.4318 
      5 CA         29.3470   23.7594    0.4177 C.3       1 UNK         0.0824 
      6 C6         30.0258   22.4302    0.8628 C.3       12 UNK        -0.0944 
      7 S7         29.1393   21.6471    2.2551 S.3       12 UNK        -0.2672 
      8 C8         30.1145   22.2075    3.6896 C.3       12 UNK         0.0333 
      9 C9         30.1239   23.7247    3.8175 C.ar      12 UNK        -0.0807 
     10 C10        31.2333   24.4567    3.3824 C.ar      12 UNK        -0.0894 
     11 C11        31.2456   25.8494    3.4793 C.ar      12 UNK        -0.0804 
     12 C12        30.1468   26.5099    4.0323 C.ar      12 UNK        -0.0824 
     13 C13        29.0272   25.7932    4.4639 C.ar      12 UNK        -0.0762 
     14 C14        29.0222   24.3982    4.3572 C.ar      12 UNK        -0.0782 
     15 C15        27.8290   26.5294    5.0492 C.3       12 UNK         0.0230 
     16 S16        26.5418   26.8605    3.8002 S.3       12 UNK        -0.2608 
     17 C17        27.3962   28.0067    2.6652 C.3       12 UNK        -0.0989 
     18 CA         27.7859   27.2910    1.3454 C.3       5 UNK         0.0716 
     19 N          26.6545   26.9268    0.4857 N.am      5 UNK        -0.4135 
     20 C          25.7045   27.7241   -0.0220 C.2       4 UNK         0.5031 
     21 O          25.6617   28.9429    0.1550 O.2       4 UNK        -0.5229 
     22 CA         24.6345   27.0550   -0.9019 C.3       4 UNK         0.0329 
     23 CB         25.0339   27.1463   -2.3834 C.3       4 UNK        -0.2001 
     24 N          24.4027   25.6508   -0.5556 N.am      4 UNK        -0.4303 
     25 C          23.8174   25.2096    0.5654 C.2       3 UNK         0.5044 
     26 O          23.3292   25.9580    1.4124 O.2       3 UNK        -0.5152 
     27 CA         23.7810   23.6861    0.8118 C.3       3 UNK         0.0319 
     28 CB         22.4068   23.0973    0.4355 C.3       3 UNK        -0.2001 
     29 N          24.8823   22.9223    0.1988 N.am      3 UNK        -0.4354 
     30 C          25.1387   22.7122   -1.1019 C.2       2 UNK         0.4964 
     31 O          24.4337   23.1437   -2.0153 O.2       2 UNK        -0.5047 
     32 CA         26.4369   21.9458   -1.4270 C.3       2 UNK         0.0288 
     33 CB         26.8115   22.0186   -2.9230 C.3       2 UNK        -0.2113 
     34 N          27.5819   22.3593   -0.6020 N.am      2 UNK        -0.4145 
     35 C          28.0874   23.5962   -0.4644 C.2       1 UNK         0.5006 
     36 O          27.5780   24.6028   -0.9640 O.2       1 UNK        -0.5103 
     37 C          28.8829   28.0325    0.5638 C.2       5 UNK         0.5055 
     38 O          30.0178   27.5516    0.5353 O.2       5 UNK        -0.5220 
     39 N          28.5186   29.1503   -0.0798 N.am      6 UNK        -0.4450 
     40 CA         29.3105   30.0138   -0.9660 C.3       6 UNK         0.0367 
     41 CB         29.7685   29.2510   -2.2251 C.3       6 UNK        -0.1929 
     42 C          30.4913   30.7202   -0.2778 C.2       6 UNK         0.5070 
     43 O          30.5260   31.9495   -0.2425 O.2       6 UNK        -0.5237 
     44 N          31.4242   29.9397    0.2756 N.am      7 UNK        -0.4739 
     45 CA         32.6331   30.3970    0.9634 C.3       7 UNK         0.0276 
     46 CB         33.8003   29.4649    0.5883 C.3       7 UNK        -0.1927 
     47 C          32.4211   30.4828    2.4855 C.2       7 UNK         0.5013 
     48 O          33.3474   30.2078    3.2500 O.2       7 UNK        -0.5193 
     49 N          31.2074   30.8598    2.9140 N.am      8 UNK        -0.4253 
     50 CA         30.7802   30.9400    4.3168 C.3       8 UNK         0.0242 
     51 CB         29.3129   31.3929    4.3778 C.3       8 UNK        -0.2000 
     52 C          31.6602   31.8439    5.1992 C.2       8 UNK         0.4948 
     53 O          31.8342   31.5449    6.3796 O.2       8 UNK        -0.5275 
     54 N          32.2383   32.8977    4.6057 N.am      9 UNK        -0.4246 
     55 CA         33.2057   33.7905    5.2488 C.3       9 UNK         0.0261 
     56 CB         33.4417   35.0125    4.3462 C.3       9 UNK        -0.1959 
     57 C          34.5458   33.1114    5.5953 C.2       9 UNK         0.5033 
     58 O          35.2161   33.5644    6.5244 O.2       9 UNK        -0.5390 
     59 N          34.9153   32.0552    4.8565 N.am      10 UNK        -0.4215 
     60 CA         36.1055   31.2435    5.1094 C.3       10 UNK         0.0240 
     61 CB         36.7165   30.7858    3.7737 C.3       10 UNK        -0.1982 
     62 C          35.7651   30.0368    5.9950 C.2       10 UNK         0.4970 
     63 O          36.5096   29.7548    6.9348 O.2       10 UNK        -0.4916 
     64 N          34.6587   29.3484    5.6815 N.am      11 UNK        -0.4279 
     65 CA         34.1781   28.1712    6.4211 C.3       11 UNK         0.1003 
     66 C          33.6554   28.4763    7.8531 C.2       11 UNK         0.5709 
     67 N          33.1052   29.6522    8.1271 N.am      11 UNK        -0.7358 
     68 O          33.7619   27.6289    8.7366 O.2       11 UNK        -0.4999 
     69 C69        33.1289   27.3716    5.6101 C.3       12 UNK        -0.0954 
     70 S70        33.8430   26.6081    4.1155 S.3       12 UNK        -0.2268 
     71 C71        32.4343   26.6455    2.9652 C.3       12 UNK         0.0203 
     72 H72        31.9477   26.4811   -0.9868 H         1 UNK         0.0888 
     73 H73        32.8801   25.3526   -1.9665 H         1 UNK         0.0888 
     74 H74        31.4610   26.1489   -2.6526 H         1 UNK         0.0888 
     75 H75        30.3004   25.6391    0.2644 H         1 UNK         0.3017 
     76 H76        28.9904   24.2546    1.3192 H         1 UNK         0.0873 
     77 H77        30.1151   21.7231    0.0361 H         1 UNK         0.0745 
     78 H78        31.0527   22.6194    1.1773 H         1 UNK         0.0745 
     79 H79        31.1315   21.8207    3.6074 H         1 UNK         0.0705 
     80 H80        29.6949   21.7681    4.5957 H         1 UNK         0.0705 
     81 H81        32.0869   23.9459    2.9581 H         1 UNK         0.1334 
     82 H82        30.1632   27.5867    4.1165 H         1 UNK         0.1417 
     83 H83        28.1578   23.8368    4.6856 H         1 UNK         0.1562 
     84 H84        28.1423   27.4697    5.5059 H         1 UNK         0.0748 
     85 H85        27.3921   25.9355    5.8534 H         1 UNK         0.0748 
     86 H86        28.2730   28.4161    3.1654 H         1 UNK         0.0940 
     87 H87        26.7478   28.8639    2.4817 H         1 UNK         0.0940 
     88 H88        28.2365   26.3414    1.6292 H         1 UNK         0.0703 
     89 H89        26.6695   25.9696    0.1488 H         1 UNK         0.3081 
     90 H90        23.6993   27.6005   -0.7598 H         1 UNK         0.0719 
     91 H91        25.9559   26.5989   -2.5863 H         1 UNK         0.0809 
     92 H92        24.2549   26.7417   -3.0299 H         1 UNK         0.0809 
     93 H93        25.1965   28.1830   -2.6818 H         1 UNK         0.0809 
     94 H94        24.7173   24.9517   -1.2202 H         1 UNK         0.2990 
     95 H95        23.9054   23.5541    1.8879 H         1 UNK         0.0690 
     96 H96        22.3535   22.0337    0.6676 H         1 UNK         0.0788 
     97 H97        22.1836   23.2221   -0.6244 H         1 UNK         0.0788 
     98 H98        21.6086   23.5904    0.9919 H         1 UNK         0.0788 
     99 H99        25.5500   22.5468    0.8584 H         1 UNK         0.2993 
    100 H100       26.2383   20.9003   -1.1859 H         1 UNK         0.0949 
    101 H101       26.9887   23.0458   -3.2448 H         1 UNK         0.0767 
    102 H102       27.7125   21.4427   -3.1343 H         1 UNK         0.0767 
    103 H103       26.0151   21.6131   -3.5484 H         1 UNK         0.0767 
    104 H104       28.0466   21.6164   -0.0956 H         1 UNK         0.3013 
    105 H105       27.5398   29.4124    0.0146 H         1 UNK         0.3121 
    106 H106       28.6279   30.7988   -1.2960 H         1 UNK         0.0774 
    107 H107       30.2889   29.9165   -2.9150 H         1 UNK         0.0815 
    108 H108       30.4507   28.4353   -1.9872 H         1 UNK         0.0815 
    109 H109       28.9188   28.8284   -2.7614 H         1 UNK         0.0815 
    110 H110       31.2341   28.9398    0.2892 H         1 UNK         0.2987 
    111 H111       32.8900   31.4030    0.6247 H         1 UNK         0.0949 
    112 H112       33.6338   28.4454    0.9354 H         1 UNK         0.0806 
    113 H113       33.9466   29.4301   -0.4913 H         1 UNK         0.0806 
    114 H114       34.7372   29.8102    1.0272 H         1 UNK         0.0806 
    115 H115       30.5183   31.0913    2.2128 H         1 UNK         0.3010 
    116 H116       30.8434   29.9322    4.7307 H         1 UNK         0.0829 
    117 H117       28.9569   31.4222    5.4088 H         1 UNK         0.0813 
    118 H118       29.1811   32.3917    3.9597 H         1 UNK         0.0813 
    119 H119       28.6596   30.7132    3.8320 H         1 UNK         0.0813 
    120 H120       32.0308   33.0718    3.6331 H         1 UNK         0.3038 
    121 H121       32.7659   34.1379    6.1863 H         1 UNK         0.0769 
    122 H122       34.1366   35.7127    4.8121 H         1 UNK         0.0811 
    123 H123       32.5146   35.5554    4.1611 H         1 UNK         0.0811 
    124 H124       33.8646   34.7278    3.3819 H         1 UNK         0.0811 
    125 H125       34.2785   31.7018    4.1500 H         1 UNK         0.3204 
    126 H126       36.8567   31.8419    5.6296 H         1 UNK         0.0748 
    127 H127       37.6276   30.2099    3.9412 H         1 UNK         0.0771 
    128 H128       36.0335   30.1535    3.2057 H         1 UNK         0.0771 
    129 H129       36.9821   31.6378    3.1478 H         1 UNK         0.0771 
    130 H130       34.1229   29.6162    4.8609 H         1 UNK         0.2980 
    131 H131       35.0408   27.5162    6.5602 H         1 UNK         0.0545 
    132 H132       32.9168   30.3338    7.3984 H         1 UNK         0.3459 
    133 H133       32.7820   29.8307    9.0639 H         1 UNK         0.3459 
    134 H134       32.7000   26.5650    6.2081 H         1 UNK         0.0616 
    135 H135       32.3007   28.0239    5.3309 H         1 UNK         0.0616 
    136 H136       32.7519   26.2430    2.0023 H         1 UNK         0.0634 
    137 H137       32.1445   27.6786    2.7809 H         1 UNK         0.0634 
@<TRIPOS>BOND
     1    1    2 1    
     2    1   72 1    
     3    1   73 1    
     4    1   74 1    
     5    2    3 2    
     6    2    4 am   BACKBONE|DICT|INTERRES
     7    4    5 1    
     8    4   75 1    
     9    5    6 1    
    10    5   35 1    
    11    5   76 1    
    12    6    7 1    
    13    6   77 1    
    14    6   78 1    
    15    7    8 1    
    16    8    9 1    
    17    8   79 1    
    18    8   80 1    
    19    9   10 ar   
    20    9   14 ar   
    21   10   11 ar   
    22   10   81 1    
    23   11   12 ar   
    24   11   71 1    
    25   12   13 ar   
    26   12   82 1    
    27   13   14 ar   
    28   13   15 1    
    29   14   83 1    
    30   15   16 1    
    31   15   84 1    
    32   15   85 1    
    33   16   17 1    
    34   17   18 1    
    35   17   86 1    
    36   17   87 1    
    37   18   19 1    
    38   18   37 1    
    39   18   88 1    
    40   19   20 am   BACKBONE|DICT|INTERRES
    41   19   89 1    
    42   20   21 2    
    43   20   22 1    
    44   22   23 1    
    45   22   24 1    
    46   22   90 1    
    47   23   91 1    
    48   23   92 1    
    49   23   93 1    
    50   24   25 am   BACKBONE|DICT|INTERRES
    51   24   94 1    
    52   25   26 2    
    53   25   27 1    
    54   27   28 1    
    55   27   29 1    
    56   27   95 1    
    57   28   96 1    
    58   28   97 1    
    59   28   98 1    
    60   29   30 am   BACKBONE|DICT|INTERRES
    61   29   99 1    
    62   30   31 2    
    63   30   32 1    
    64   32   33 1    
    65   32   34 1    
    66   32  100 1    
    67   33  101 1    
    68   33  102 1    
    69   33  103 1    
    70   34   35 am   BACKBONE|DICT|INTERRES
    71   34  104 1    
    72   35   36 2    
    73   37   38 2    
    74   37   39 am   BACKBONE|DICT|INTERRES
    75   39   40 1    
    76   39  105 1    
    77   40   41 1    
    78   40   42 1    
    79   40  106 1    
    80   41  107 1    
    81   41  108 1    
    82   41  109 1    
    83   42   43 2    
    84   42   44 am   BACKBONE|DICT|INTERRES
    85   44   45 1    
    86   44  110 1    
    87   45   46 1    
    88   45   47 1    
    89   45  111 1    
    90   46  112 1    
    91   46  113 1    
    92   46  114 1    
    93   47   48 2    
    94   47   49 am   BACKBONE|DICT|INTERRES
    95   49   50 1    
    96   49  115 1    
    97   50   51 1    
    98   50   52 1    
    99   50  116 1    
   100   51  117 1    
   101   51  118 1    
   102   51  119 1    
   103   52   53 2    
   104   52   54 am   BACKBONE|DICT|INTERRES
   105   54   55 1    
   106   54  120 1    
   107   55   56 1    
   108   55   57 1    
   109   55  121 1    
   110   56  122 1    
   111   56  123 1    
   112   56  124 1    
   113   57   58 2    
   114   57   59 am   BACKBONE|DICT|INTERRES
   115   59   60 1    
   116   59  125 1    
   117   60   61 1    
   118   60   62 1    
   119   60  126 1    
   120   61  127 1    
   121   61  128 1    
   122   61  129 1    
   123   62   63 2    
   124   62   64 am   BACKBONE|DICT|INTERRES
   125   64   65 1    
   126   64  130 1    
   127   65   66 1    
   128   65   69 1    
   129   65  131 1    
   130   66   67 am   BACKBONE|DICT|INTERRES
   131   66   68 2    
   132   67  132 1    
   133   67  133 1    
   134   69   70 1    
   135   69  134 1    
   136   69  135 1    
   137   70   71 1    
   138   71  136 1    
   139   71  137 1    
@<TRIPOS>SUBSTRUCTURE
     1 UNK         1 GROUP             0       ****    0 ROOT    
