@<TRIPOS>MOLECULE
3R136
137   139    1
SMALL
USER_CHARGES


@<TRIPOS>ATOM
      1 CA         27.1747   25.8867    3.7435 C.3       0 UNK        -0.1979 
      2 C          27.5490   24.8112    2.7371 C.2       0 UNK         0.4864 
      3 O          27.8772   25.1375    1.5945 O.2       0 UNK        -0.5359 
      4 N          27.4933   23.5387    3.1639 N.am      1 UNK        -0.4318 
      5 CA         27.7924   22.3247    2.3875 C.3       1 UNK         0.0824 
      6 C6         29.2925   22.1878    2.0087 C.3       12 UNK        -0.0944 
      7 S7         30.3675   21.9576    3.4697 S.3       12 UNK        -0.2672 
      8 C8         30.9549   23.6422    3.8451 C.3       12 UNK         0.0333 
      9 C9         32.0053   24.1303    2.8592 C.ar      12 UNK        -0.0807 
     10 C10        33.3636   23.9046    3.1021 C.ar      12 UNK        -0.0894 
     11 C11        34.3327   24.3768    2.2108 C.ar      12 UNK        -0.0804 
     12 C12        33.9332   25.0806    1.0699 C.ar      12 UNK        -0.0824 
     13 C13        32.5787   25.3198    0.8230 C.ar      12 UNK        -0.0762 
     14 C14        31.6214   24.8376    1.7180 C.ar      12 UNK        -0.0782 
     15 C15        32.1447   26.0732   -0.4242 C.3       12 UNK         0.0230 
     16 S16        32.1099   27.8787   -0.1791 S.3       12 UNK        -0.2608 
     17 C17        30.7169   28.1246    0.9752 C.3       12 UNK        -0.0989 
     18 CA         29.3564   28.3475    0.2681 C.3       5 UNK         0.0716 
     19 N          28.8212   27.1287   -0.3295 N.am      5 UNK        -0.4135 
     20 C          28.6588   26.9165   -1.6406 C.2       4 UNK         0.5031 
     21 O          29.0609   27.6757   -2.5229 O.2       4 UNK        -0.5229 
     22 CA         27.8730   25.6545   -2.0310 C.3       4 UNK         0.0329 
     23 CB         28.7854   24.4181   -2.0160 C.3       4 UNK        -0.2001 
     24 N          26.7263   25.4327   -1.1469 N.am      4 UNK        -0.4303 
     25 C          25.6405   26.2195   -1.0975 C.2       3 UNK         0.5044 
     26 O          25.4549   27.1649   -1.8656 O.2       3 UNK        -0.5152 
     27 CA         24.6082   25.9321    0.0132 C.3       3 UNK         0.0319 
     28 CB         23.1857   26.4067   -0.3541 C.3       3 UNK        -0.2001 
     29 N          24.5928   24.5373    0.4718 N.am      3 UNK        -0.4354 
     30 C          24.2978   23.4397   -0.2436 C.2       2 UNK         0.4964 
     31 O          23.9532   23.4569   -1.4263 O.2       2 UNK        -0.5047 
     32 CA         24.4219   22.0974    0.5083 C.3       2 UNK         0.0288 
     33 CB         24.4762   20.8759   -0.4356 C.3       2 UNK        -0.2113 
     34 N          25.5438   22.0841    1.4608 N.am      2 UNK        -0.4145 
     35 C          26.8491   22.2168    1.1709 C.2       1 UNK         0.5006 
     36 O          27.2943   22.3144    0.0266 O.2       1 UNK        -0.5103 
     37 C          28.2735   28.8308    1.2419 C.2       5 UNK         0.5055 
     38 O          28.3772   28.5943    2.4449 O.2       5 UNK        -0.5220 
     39 N          27.2227   29.4581    0.6953 N.am      6 UNK        -0.4450 
     40 CA         26.0987   30.0081    1.4618 C.3       6 UNK         0.0367 
     41 CB         24.9457   30.3342    0.4990 C.3       6 UNK        -0.1929 
     42 C          26.4724   31.2466    2.3021 C.2       6 UNK         0.5070 
     43 O          25.7751   31.5504    3.2708 O.2       6 UNK        -0.5237 
     44 N          27.5526   31.9405    1.9178 N.am      7 UNK        -0.4739 
     45 CA         28.1493   33.0513    2.6616 C.3       7 UNK         0.0276 
     46 CB         29.1072   33.8092    1.7268 C.3       7 UNK        -0.1927 
     47 C          28.8975   32.5642    3.9167 C.2       7 UNK         0.5013 
     48 O          29.3018   31.4010    3.9857 O.2       7 UNK        -0.5193 
     49 N          29.0948   33.4773    4.8764 N.am      8 UNK        -0.4253 
     50 CA         29.8510   33.2382    6.1091 C.3       8 UNK         0.0242 
     51 CB         29.6842   34.4500    7.0414 C.3       8 UNK        -0.2000 
     52 C          31.3437   32.9681    5.8410 C.2       8 UNK         0.4948 
     53 O          31.8956   33.4965    4.8725 O.2       8 UNK        -0.5275 
     54 N          31.9623   32.1807    6.7339 N.am      9 UNK        -0.4246 
     55 CA         33.3663   31.7471    6.7119 C.3       9 UNK         0.0261 
     56 CB         34.3214   32.9447    6.9109 C.3       9 UNK        -0.1959 
     57 C          33.7075   30.8997    5.4696 C.2       9 UNK         0.5033 
     58 O          34.6823   31.1894    4.7704 O.2       9 UNK        -0.5390 
     59 N          32.8945   29.8586    5.2290 N.am      10 UNK        -0.4215 
     60 CA         33.0511   28.8645    4.1604 C.3       10 UNK         0.0240 
     61 CB         31.9601   27.7903    4.3054 C.3       10 UNK        -0.1982 
     62 C          34.4508   28.2236    4.1698 C.2       10 UNK         0.4970 
     63 O          34.8155   27.6022    5.1697 O.2       10 UNK        -0.4916 
     64 N          35.2025   28.4559    3.0847 N.am      11 UNK        -0.4279 
     65 CA         36.6323   28.1487    2.8967 C.3       11 UNK         0.1003 
     66 C          37.6065   28.6648    4.0027 C.2       11 UNK         0.5709 
     67 N          37.2519   29.6958    4.7619 N.am      11 UNK        -0.7358 
     68 O          38.7188   28.1623    4.1479 O.2       11 UNK        -0.4999 
     69 C69        36.9118   26.7036    2.3872 C.3       12 UNK        -0.0954 
     70 S70        36.5628   25.3476    3.5592 S.3       12 UNK        -0.2268 
     71 C71        35.8063   24.0982    2.4719 C.3       12 UNK         0.0203 
     72 H72        28.0674   26.4262    4.0587 H         1 UNK         0.0888 
     73 H73        26.4888   26.6027    3.2914 H         1 UNK         0.0888 
     74 H74        26.6957   25.4709    4.6295 H         1 UNK         0.0888 
     75 H75        27.2189   23.3660    4.1212 H         1 UNK         0.3017 
     76 H76        27.5450   21.4776    3.0299 H         1 UNK         0.0873 
     77 H77        29.4374   21.3083    1.3786 H         1 UNK         0.0745 
     78 H78        29.6237   23.0309    1.4068 H         1 UNK         0.0745 
     79 H79        31.3758   23.6420    4.8517 H         1 UNK         0.0705 
     80 H80        30.1162   24.3359    3.8785 H         1 UNK         0.0705 
     81 H81        33.6678   23.3607    3.9861 H         1 UNK         0.1334 
     82 H82        34.6731   25.4393    0.3683 H         1 UNK         0.1417 
     83 H83        30.5735   25.0236    1.5292 H         1 UNK         0.1562 
     84 H84        31.1682   25.7235   -0.7544 H         1 UNK         0.0748 
     85 H85        32.8306   25.8491   -1.2425 H         1 UNK         0.0748 
     86 H86        30.9679   29.0036    1.5723 H         1 UNK         0.0940 
     87 H87        30.6516   27.3040    1.6858 H         1 UNK         0.0940 
     88 H88        29.4861   29.1273   -0.4857 H         1 UNK         0.0703 
     89 H89        28.4372   26.4491    0.3259 H         1 UNK         0.3081 
     90 H90        27.4982   25.7920   -3.0474 H         1 UNK         0.0719 
     91 H91        29.6514   24.5611   -2.6635 H         1 UNK         0.0809 
     92 H92        29.1552   24.2005   -1.0129 H         1 UNK         0.0809 
     93 H93        28.2563   23.5339   -2.3720 H         1 UNK         0.0809 
     94 H94        26.8245   24.6971   -0.4573 H         1 UNK         0.2990 
     95 H95        24.9358   26.5228    0.8703 H         1 UNK         0.0690 
     96 H96        22.8112   25.9077   -1.2483 H         1 UNK         0.0788 
     97 H97        23.1662   27.4791   -0.5508 H         1 UNK         0.0788 
     98 H98        22.4822   26.2165    0.4563 H         1 UNK         0.0788 
     99 H99        24.8715   24.3980    1.4321 H         1 UNK         0.2993 
    100 H100       23.5124   22.0067    1.1044 H         1 UNK         0.0949 
    101 H101       25.3214   20.9294   -1.1226 H         1 UNK         0.0767 
    102 H102       24.5573   19.9446    0.1249 H         1 UNK         0.0767 
    103 H103       23.5714   20.8102   -1.0412 H         1 UNK         0.0767 
    104 H104       25.2828   22.0222    2.4357 H         1 UNK         0.3013 
    105 H105       27.1914   29.5771   -0.3079 H         1 UNK         0.3121 
    106 H106       25.7550   29.2375    2.1556 H         1 UNK         0.0774 
    107 H107       24.0734   30.6969    1.0445 H         1 UNK         0.0815 
    108 H108       25.2249   31.1062   -0.2191 H         1 UNK         0.0815 
    109 H109       24.6331   29.4523   -0.0602 H         1 UNK         0.0815 
    110 H110       28.0757   31.5963    1.1273 H         1 UNK         0.2987 
    111 H111       27.3497   33.7270    2.9742 H         1 UNK         0.0949 
    112 H112       28.5888   34.1834    0.8437 H         1 UNK         0.0806 
    113 H113       29.5485   34.6708    2.2297 H         1 UNK         0.0806 
    114 H114       29.9291   33.1749    1.3918 H         1 UNK         0.0806 
    115 H115       28.7691   34.4207    4.7248 H         1 UNK         0.3010 
    116 H116       29.4206   32.3601    6.5958 H         1 UNK         0.0829 
    117 H117       28.6354   34.6273    7.2807 H         1 UNK         0.0813 
    118 H118       30.2074   34.2940    7.9859 H         1 UNK         0.0813 
    119 H119       30.0864   35.3604    6.5945 H         1 UNK         0.0813 
    120 H120       31.4117   31.8160    7.4997 H         1 UNK         0.3038 
    121 H121       33.4968   31.0869    7.5709 H         1 UNK         0.0769 
    122 H122       35.3536   32.6063    7.0100 H         1 UNK         0.0811 
    123 H123       34.2889   33.6368    6.0689 H         1 UNK         0.0811 
    124 H124       34.0758   33.5032    7.8141 H         1 UNK         0.0811 
    125 H125       32.1214   29.7102    5.8603 H         1 UNK         0.3204 
    126 H126       32.9003   29.3790    3.2094 H         1 UNK         0.0748 
    127 H127       32.0885   27.0090    3.5566 H         1 UNK         0.0771 
    128 H128       31.9954   27.3059    5.2820 H         1 UNK         0.0771 
    129 H129       30.9629   28.2116    4.1718 H         1 UNK         0.0771 
    130 H130       34.7933   29.0042    2.3427 H         1 UNK         0.2980 
    131 H131       36.9016   28.7865    2.0541 H         1 UNK         0.0545 
    132 H132       37.8940   30.0326    5.4608 H         1 UNK         0.3459 
    133 H133       36.3462   30.1420    4.6517 H         1 UNK         0.3459 
    134 H134       37.9554   26.6117    2.0820 H         1 UNK         0.0616 
    135 H135       36.3396   26.5429    1.4751 H         1 UNK         0.0616 
    136 H136       36.3609   24.0414    1.5339 H         1 UNK         0.0634 
    137 H137       35.9126   23.1201    2.9434 H         1 UNK         0.0634 
@<TRIPOS>BOND
     1    1    2 1    
     2    1   72 1    
     3    1   73 1    
     4    1   74 1    
     5    2    3 2    
     6    2    4 am   BACKBONE|DICT|INTERRES
     7    4    5 1    
     8    4   75 1    
     9    5    6 1    
    10    5   35 1    
    11    5   76 1    
    12    6    7 1    
    13    6   77 1    
    14    6   78 1    
    15    7    8 1    
    16    8    9 1    
    17    8   79 1    
    18    8   80 1    
    19    9   10 ar   
    20    9   14 ar   
    21   10   11 ar   
    22   10   81 1    
    23   11   12 ar   
    24   11   71 1    
    25   12   13 ar   
    26   12   82 1    
    27   13   14 ar   
    28   13   15 1    
    29   14   83 1    
    30   15   16 1    
    31   15   84 1    
    32   15   85 1    
    33   16   17 1    
    34   17   18 1    
    35   17   86 1    
    36   17   87 1    
    37   18   19 1    
    38   18   37 1    
    39   18   88 1    
    40   19   20 am   BACKBONE|DICT|INTERRES
    41   19   89 1    
    42   20   21 2    
    43   20   22 1    
    44   22   23 1    
    45   22   24 1    
    46   22   90 1    
    47   23   91 1    
    48   23   92 1    
    49   23   93 1    
    50   24   25 am   BACKBONE|DICT|INTERRES
    51   24   94 1    
    52   25   26 2    
    53   25   27 1    
    54   27   28 1    
    55   27   29 1    
    56   27   95 1    
    57   28   96 1    
    58   28   97 1    
    59   28   98 1    
    60   29   30 am   BACKBONE|DICT|INTERRES
    61   29   99 1    
    62   30   31 2    
    63   30   32 1    
    64   32   33 1    
    65   32   34 1    
    66   32  100 1    
    67   33  101 1    
    68   33  102 1    
    69   33  103 1    
    70   34   35 am   BACKBONE|DICT|INTERRES
    71   34  104 1    
    72   35   36 2    
    73   37   38 2    
    74   37   39 am   BACKBONE|DICT|INTERRES
    75   39   40 1    
    76   39  105 1    
    77   40   41 1    
    78   40   42 1    
    79   40  106 1    
    80   41  107 1    
    81   41  108 1    
    82   41  109 1    
    83   42   43 2    
    84   42   44 am   BACKBONE|DICT|INTERRES
    85   44   45 1    
    86   44  110 1    
    87   45   46 1    
    88   45   47 1    
    89   45  111 1    
    90   46  112 1    
    91   46  113 1    
    92   46  114 1    
    93   47   48 2    
    94   47   49 am   BACKBONE|DICT|INTERRES
    95   49   50 1    
    96   49  115 1    
    97   50   51 1    
    98   50   52 1    
    99   50  116 1    
   100   51  117 1    
   101   51  118 1    
   102   51  119 1    
   103   52   53 2    
   104   52   54 am   BACKBONE|DICT|INTERRES
   105   54   55 1    
   106   54  120 1    
   107   55   56 1    
   108   55   57 1    
   109   55  121 1    
   110   56  122 1    
   111   56  123 1    
   112   56  124 1    
   113   57   58 2    
   114   57   59 am   BACKBONE|DICT|INTERRES
   115   59   60 1    
   116   59  125 1    
   117   60   61 1    
   118   60   62 1    
   119   60  126 1    
   120   61  127 1    
   121   61  128 1    
   122   61  129 1    
   123   62   63 2    
   124   62   64 am   BACKBONE|DICT|INTERRES
   125   64   65 1    
   126   64  130 1    
   127   65   66 1    
   128   65   69 1    
   129   65  131 1    
   130   66   67 am   BACKBONE|DICT|INTERRES
   131   66   68 2    
   132   67  132 1    
   133   67  133 1    
   134   69   70 1    
   135   69  134 1    
   136   69  135 1    
   137   70   71 1    
   138   71  136 1    
   139   71  137 1    
@<TRIPOS>SUBSTRUCTURE
     1 UNK         1 GROUP             0       ****    0 ROOT    
