@<TRIPOS>MOLECULE
3R136
137   139    1
SMALL
USER_CHARGES


@<TRIPOS>ATOM
      1 CA         31.7878   22.6994   -0.7729 C.3       0 UNK        -0.1979 
      2 C          30.7401   21.9274   -1.5724 C.2       0 UNK         0.4864 
      3 O          30.8746   21.8184   -2.7900 O.2       0 UNK        -0.5359 
      4 N          29.6813   21.3860   -0.9541 N.am      1 UNK        -0.4318 
      5 CA         29.3563   21.4417    0.4742 C.3       1 UNK         0.0824 
      6 C6         29.5237   20.0631    1.1781 C.3       12 UNK        -0.0944 
      7 S7         31.2713   19.6256    1.4752 S.3       12 UNK        -0.2672 
      8 C8         31.5090   20.1835    3.1997 C.3       12 UNK         0.0333 
      9 C9         31.4198   21.6992    3.2992 C.ar      12 UNK        -0.0807 
     10 C10        32.5354   22.4876    3.0015 C.ar      12 UNK        -0.0894 
     11 C11        32.4319   23.8815    2.9663 C.ar      12 UNK        -0.0804 
     12 C12        31.1938   24.4799    3.2211 C.ar      12 UNK        -0.0824 
     13 C13        30.0739   23.7027    3.5316 C.ar      12 UNK        -0.0762 
     14 C14        30.2022   22.3140    3.6082 C.ar      12 UNK        -0.0782 
     15 C15        28.7088   24.3554    3.6826 C.3       12 UNK         0.0230 
     16 S16        28.6952   25.6368    4.9698 S.3       12 UNK        -0.2608 
     17 C17        27.4093   26.7507    4.3176 C.3       12 UNK        -0.0989 
     18 CA         28.0347   27.9983    3.6506 C.3       5 UNK         0.0716 
     19 N          28.7910   27.7031    2.4267 N.am      5 UNK        -0.4135 
     20 C          29.7492   28.5016    1.9322 C.2       4 UNK         0.5031 
     21 O          30.1401   29.5226    2.4968 O.2       4 UNK        -0.5229 
     22 CA         30.3602   28.1377    0.5667 C.3       4 UNK         0.0329 
     23 CB         31.6241   27.2818    0.7282 C.3       4 UNK        -0.2001 
     24 N          29.4229   27.4681   -0.3365 N.am      4 UNK        -0.4303 
     25 C          28.3544   28.0667   -0.8783 C.2       3 UNK         0.5044 
     26 O          28.0646   29.2459   -0.6865 O.2       3 UNK        -0.5152 
     27 CA         27.4264   27.1940   -1.7392 C.3       3 UNK         0.0319 
     28 CB         27.9370   27.1377   -3.1877 C.3       3 UNK        -0.2001 
     29 N          27.2209   25.8281   -1.2394 N.am      3 UNK        -0.4354 
     30 C          26.7844   25.5010   -0.0130 C.2       2 UNK         0.4964 
     31 O          26.6349   26.3076    0.9067 O.2       2 UNK        -0.5047 
     32 CA         26.5028   24.0160    0.2308 C.3       2 UNK         0.0288 
     33 CB         25.3885   23.4848   -0.6933 C.3       2 UNK        -0.2113 
     34 N          27.7327   23.2367    0.0799 N.am      2 UNK        -0.4145 
     35 C          27.9463   22.0417    0.6478 C.2       1 UNK         0.5006 
     36 O          27.0867   21.4339    1.2889 O.2       1 UNK        -0.5103 
     37 C          26.9721   29.0757    3.3805 C.2       5 UNK         0.5055 
     38 O          26.8216   29.9799    4.2030 O.2       5 UNK        -0.5220 
     39 N          26.3034   29.0046    2.2177 N.am      6 UNK        -0.4450 
     40 CA         25.3687   30.0289    1.7323 C.3       6 UNK         0.0367 
     41 CB         24.7000   29.5491    0.4348 C.3       6 UNK        -0.1929 
     42 C          26.0340   31.4056    1.5328 C.2       6 UNK         0.5070 
     43 O          25.3981   32.4297    1.7785 O.2       6 UNK        -0.5237 
     44 N          27.3221   31.4015    1.1650 N.am      7 UNK        -0.4739 
     45 CA         28.2128   32.5637    1.0961 C.3       7 UNK         0.0276 
     46 CB         29.3367   32.2564    0.0904 C.3       7 UNK        -0.1927 
     47 C          28.7759   33.0084    2.4673 C.2       7 UNK         0.5013 
     48 O          29.7757   33.7270    2.4954 O.2       7 UNK        -0.5193 
     49 N          28.1301   32.5963    3.5694 N.am      8 UNK        -0.4253 
     50 CA         28.4273   32.9198    4.9697 C.3       8 UNK         0.0242 
     51 CB         28.3101   34.4372    5.2343 C.3       8 UNK        -0.2000 
     52 C          29.7562   32.3131    5.4547 C.2       8 UNK         0.4948 
     53 O          30.5735   33.0161    6.0520 O.2       8 UNK        -0.5275 
     54 N          29.9224   31.0058    5.2022 N.am      9 UNK        -0.4246 
     55 CA         31.0680   30.1611    5.5707 C.3       9 UNK         0.0261 
     56 CB         31.1614   29.9934    7.1020 C.3       9 UNK        -0.1959 
     57 C          32.3805   30.6518    4.9336 C.2       9 UNK         0.5033 
     58 O          33.3752   30.8649    5.6303 O.2       9 UNK        -0.5390 
     59 N          32.3524   30.8143    3.6047 N.am      10 UNK        -0.4215 
     60 CA         33.4460   31.3383    2.7801 C.3       10 UNK         0.0240 
     61 CB         32.9578   31.4840    1.3305 C.3       10 UNK        -0.1982 
     62 C          34.7424   30.5099    2.8352 C.2       10 UNK         0.4970 
     63 O          35.8213   31.0759    2.6547 O.2       10 UNK        -0.4916 
     64 N          34.6186   29.2027    3.0959 N.am      11 UNK        -0.4279 
     65 CA         35.7418   28.2884    3.3450 C.3       11 UNK         0.1003 
     66 C          36.3293   28.3561    4.7870 C.2       11 UNK         0.5709 
     67 N          35.7728   29.1336    5.7098 N.am      11 UNK        -0.7358 
     68 O          37.3301   27.7016    5.0703 O.2       11 UNK        -0.4999 
     69 C69        35.4106   26.8407    2.8964 C.3       12 UNK        -0.0954 
     70 S70        33.9508   26.1098    3.7120 S.3       12 UNK        -0.2268 
     71 C71        33.6394   24.7237    2.5720 C.3       12 UNK         0.0203 
     72 H72        32.2142   22.0774    0.0131 H         1 UNK         0.0888 
     73 H73        32.6055   23.0164   -1.4198 H         1 UNK         0.0888 
     74 H74        31.3579   23.5926   -0.3210 H         1 UNK         0.0888 
     75 H75        29.0011   20.8966   -1.5196 H         1 UNK         0.3017 
     76 H76        30.0078   22.1555    0.9720 H         1 UNK         0.0873 
     77 H77        29.0122   20.0344    2.1413 H         1 UNK         0.0745 
     78 H78        29.0637   19.2739    0.5811 H         1 UNK         0.0745 
     79 H79        30.7717   19.7075    3.8481 H         1 UNK         0.0705 
     80 H80        32.4861   19.8475    3.5500 H         1 UNK         0.0705 
     81 H81        33.4745   22.0101    2.7565 H         1 UNK         0.1334 
     82 H82        31.0952   25.5550    3.1690 H         1 UNK         0.1417 
     83 H83        29.3351   21.7065    3.8296 H         1 UNK         0.1562 
     84 H84        27.9380   23.6178    3.9117 H         1 UNK         0.0748 
     85 H85        28.4401   24.7917    2.7206 H         1 UNK         0.0748 
     86 H86        26.7858   27.0448    5.1647 H         1 UNK         0.0940 
     87 H87        26.7478   26.2186    3.6313 H         1 UNK         0.0940 
     88 H88        28.7286   28.4263    4.3759 H         1 UNK         0.0703 
     89 H89        28.4559   26.9315    1.8663 H         1 UNK         0.3081 
     90 H90        30.6588   29.0775    0.0976 H         1 UNK         0.0719 
     91 H91        32.2892   27.6926    1.4890 H         1 UNK         0.0809 
     92 H92        32.1901   27.2402   -0.2026 H         1 UNK         0.0809 
     93 H93        31.3832   26.2589    1.0113 H         1 UNK         0.0809 
     94 H94        29.6006   26.5010   -0.5607 H         1 UNK         0.2990 
     95 H95        26.4483   27.6786   -1.7472 H         1 UNK         0.0690 
     96 H96        27.2258   26.6312   -3.8405 H         1 UNK         0.0788 
     97 H97        28.8920   26.6158   -3.2612 H         1 UNK         0.0788 
     98 H98        28.0823   28.1416   -3.5899 H         1 UNK         0.0788 
     99 H99        27.2979   25.0932   -1.9277 H         1 UNK         0.2993 
    100 H100       26.1579   23.9287    1.2642 H         1 UNK         0.0949 
    101 H101       25.7024   23.4491   -1.7369 H         1 UNK         0.0767 
    102 H102       25.0842   22.4781   -0.4061 H         1 UNK         0.0767 
    103 H103       24.4997   24.1152   -0.6379 H         1 UNK         0.0767 
    104 H104       28.4848   23.6751   -0.4319 H         1 UNK         0.3013 
    105 H105       26.4615   28.2031    1.6149 H         1 UNK         0.3121 
    106 H106       24.5922   30.1474    2.4910 H         1 UNK         0.0774 
    107 H107       25.4189   29.4478   -0.3776 H         1 UNK         0.0815 
    108 H108       23.9393   30.2584    0.1063 H         1 UNK         0.0815 
    109 H109       24.2085   28.5857    0.5715 H         1 UNK         0.0815 
    110 H110       27.7304   30.5131    0.8937 H         1 UNK         0.2987 
    111 H111       27.6413   33.4098    0.7089 H         1 UNK         0.0949 
    112 H112       29.9575   31.4276    0.4293 H         1 UNK         0.0806 
    113 H113       28.9322   31.9911   -0.8866 H         1 UNK         0.0806 
    114 H114       29.9885   33.1187   -0.0556 H         1 UNK         0.0806 
    115 H115       27.3512   31.9618    3.4391 H         1 UNK         0.3010 
    116 H116       27.6475   32.4327    5.5575 H         1 UNK         0.0829 
    117 H117       29.0916   35.0021    4.7255 H         1 UNK         0.0813 
    118 H118       27.3462   34.8244    4.9045 H         1 UNK         0.0813 
    119 H119       28.3983   34.6535    6.2997 H         1 UNK         0.0813 
    120 H120       29.2050   30.5518    4.6529 H         1 UNK         0.3038 
    121 H121       30.8782   29.1731    5.1495 H         1 UNK         0.0769 
    122 H122       31.9511   29.2898    7.3682 H         1 UNK         0.0811 
    123 H123       31.3862   30.9362    7.6017 H         1 UNK         0.0811 
    124 H124       30.2302   29.6070    7.5161 H         1 UNK         0.0811 
    125 H125       31.4946   30.5500    3.1205 H         1 UNK         0.3204 
    126 H126       33.6864   32.3333    3.1600 H         1 UNK         0.0748 
    127 H127       32.1251   32.1845    1.2681 H         1 UNK         0.0771 
    128 H128       33.7494   31.8679    0.6853 H         1 UNK         0.0771 
    129 H129       32.6301   30.5300    0.9161 H         1 UNK         0.0771 
    130 H130       33.6987   28.8215    3.2542 H         1 UNK         0.2980 
    131 H131       36.5645   28.6129    2.7051 H         1 UNK         0.0545 
    132 H132       34.9553   29.7008    5.5092 H         1 UNK         0.3459 
    133 H133       36.1804   29.1622    6.6303 H         1 UNK         0.3459 
    134 H134       35.2352   26.8394    1.8194 H         1 UNK         0.0616 
    135 H135       36.2653   26.1805    3.0550 H         1 UNK         0.0616 
    136 H136       33.4840   25.1095    1.5642 H         1 UNK         0.0634 
    137 H137       34.5381   24.1061    2.5311 H         1 UNK         0.0634 
@<TRIPOS>BOND
     1    1    2 1    
     2    1   72 1    
     3    1   73 1    
     4    1   74 1    
     5    2    3 2    
     6    2    4 am   BACKBONE|DICT|INTERRES
     7    4    5 1    
     8    4   75 1    
     9    5    6 1    
    10    5   35 1    
    11    5   76 1    
    12    6    7 1    
    13    6   77 1    
    14    6   78 1    
    15    7    8 1    
    16    8    9 1    
    17    8   79 1    
    18    8   80 1    
    19    9   10 ar   
    20    9   14 ar   
    21   10   11 ar   
    22   10   81 1    
    23   11   12 ar   
    24   11   71 1    
    25   12   13 ar   
    26   12   82 1    
    27   13   14 ar   
    28   13   15 1    
    29   14   83 1    
    30   15   16 1    
    31   15   84 1    
    32   15   85 1    
    33   16   17 1    
    34   17   18 1    
    35   17   86 1    
    36   17   87 1    
    37   18   19 1    
    38   18   37 1    
    39   18   88 1    
    40   19   20 am   BACKBONE|DICT|INTERRES
    41   19   89 1    
    42   20   21 2    
    43   20   22 1    
    44   22   23 1    
    45   22   24 1    
    46   22   90 1    
    47   23   91 1    
    48   23   92 1    
    49   23   93 1    
    50   24   25 am   BACKBONE|DICT|INTERRES
    51   24   94 1    
    52   25   26 2    
    53   25   27 1    
    54   27   28 1    
    55   27   29 1    
    56   27   95 1    
    57   28   96 1    
    58   28   97 1    
    59   28   98 1    
    60   29   30 am   BACKBONE|DICT|INTERRES
    61   29   99 1    
    62   30   31 2    
    63   30   32 1    
    64   32   33 1    
    65   32   34 1    
    66   32  100 1    
    67   33  101 1    
    68   33  102 1    
    69   33  103 1    
    70   34   35 am   BACKBONE|DICT|INTERRES
    71   34  104 1    
    72   35   36 2    
    73   37   38 2    
    74   37   39 am   BACKBONE|DICT|INTERRES
    75   39   40 1    
    76   39  105 1    
    77   40   41 1    
    78   40   42 1    
    79   40  106 1    
    80   41  107 1    
    81   41  108 1    
    82   41  109 1    
    83   42   43 2    
    84   42   44 am   BACKBONE|DICT|INTERRES
    85   44   45 1    
    86   44  110 1    
    87   45   46 1    
    88   45   47 1    
    89   45  111 1    
    90   46  112 1    
    91   46  113 1    
    92   46  114 1    
    93   47   48 2    
    94   47   49 am   BACKBONE|DICT|INTERRES
    95   49   50 1    
    96   49  115 1    
    97   50   51 1    
    98   50   52 1    
    99   50  116 1    
   100   51  117 1    
   101   51  118 1    
   102   51  119 1    
   103   52   53 2    
   104   52   54 am   BACKBONE|DICT|INTERRES
   105   54   55 1    
   106   54  120 1    
   107   55   56 1    
   108   55   57 1    
   109   55  121 1    
   110   56  122 1    
   111   56  123 1    
   112   56  124 1    
   113   57   58 2    
   114   57   59 am   BACKBONE|DICT|INTERRES
   115   59   60 1    
   116   59  125 1    
   117   60   61 1    
   118   60   62 1    
   119   60  126 1    
   120   61  127 1    
   121   61  128 1    
   122   61  129 1    
   123   62   63 2    
   124   62   64 am   BACKBONE|DICT|INTERRES
   125   64   65 1    
   126   64  130 1    
   127   65   66 1    
   128   65   69 1    
   129   65  131 1    
   130   66   67 am   BACKBONE|DICT|INTERRES
   131   66   68 2    
   132   67  132 1    
   133   67  133 1    
   134   69   70 1    
   135   69  134 1    
   136   69  135 1    
   137   70   71 1    
   138   71  136 1    
   139   71  137 1    
@<TRIPOS>SUBSTRUCTURE
     1 UNK         1 GROUP             0       ****    0 ROOT    
