@<TRIPOS>MOLECULE
3R136
137   139    1
SMALL
USER_CHARGES


@<TRIPOS>ATOM
      1 CA         27.7270   20.0363   -2.1835 C.3       0 UNK        -0.1979 
      2 C          27.5629   21.1742   -1.1882 C.2       0 UNK         0.4864 
      3 O          26.7285   22.0565   -1.3992 O.2       0 UNK        -0.5359 
      4 N          28.3492   21.1682   -0.1028 N.am      1 UNK        -0.4318 
      5 CA         28.2908   22.1816    0.9533 C.3       1 UNK         0.0824 
      6 C6         29.4622   22.0742    1.9626 C.3       12 UNK        -0.0944 
      7 S7         31.1226   22.2947    1.2280 S.3       12 UNK        -0.2672 
      8 C8         31.0489   23.9120    0.3798 C.3       12 UNK         0.0333 
      9 C9         31.0120   25.1047    1.3300 C.ar      12 UNK        -0.0807 
     10 C10        32.1506   25.8986    1.5040 C.ar      12 UNK        -0.0894 
     11 C11        32.1013   27.0494    2.2964 C.ar      12 UNK        -0.0804 
     12 C12        30.9016   27.4035    2.9210 C.ar      12 UNK        -0.0824 
     13 C13        29.7602   26.6119    2.7728 C.ar      12 UNK        -0.0762 
     14 C14        29.8267   25.4622    1.9809 C.ar      12 UNK        -0.0782 
     15 C15        28.4589   27.0045    3.4671 C.3       12 UNK         0.0230 
     16 S16        27.0474   27.1636    2.3202 S.3       12 UNK        -0.2608 
     17 C17        27.6499   28.4236    1.1469 C.3       12 UNK        -0.0989 
     18 CA         28.2065   27.8017   -0.1636 C.3       5 UNK         0.0716 
     19 N          27.1664   27.2999   -1.0610 N.am      5 UNK        -0.4135 
     20 C          26.7385   26.0346   -1.0978 C.2       4 UNK         0.5031 
     21 O          27.1156   25.1605   -0.3112 O.2       4 UNK        -0.5229 
     22 CA         25.7463   25.6735   -2.2136 C.3       4 UNK         0.0329 
     23 CB         26.4860   25.4365   -3.5405 C.3       4 UNK        -0.2001 
     24 N          25.0627   24.4437   -1.8285 N.am      4 UNK        -0.4303 
     25 C          23.7393   24.2589   -1.7605 C.2       3 UNK         0.5044 
     26 O          22.9053   25.0388   -2.2221 O.2       3 UNK        -0.5152 
     27 CA         23.2725   23.0213   -0.9736 C.3       3 UNK         0.0319 
     28 CB         23.3390   21.7464   -1.8304 C.3       3 UNK        -0.2001 
     29 N          24.0887   22.8710    0.2362 N.am      3 UNK        -0.4354 
     30 C          23.8813   23.5830    1.3554 C.2       2 UNK         0.4964 
     31 O          22.8483   24.2188    1.5696 O.2       2 UNK        -0.5047 
     32 CA         25.0200   23.6775    2.3853 C.3       2 UNK         0.0288 
     33 CB         24.6979   22.9226    3.6916 C.3       2 UNK        -0.2113 
     34 N          26.3403   23.3544    1.8289 N.am      2 UNK        -0.4145 
     35 C          26.9296   22.1605    1.6756 C.2       1 UNK         0.5006 
     36 O          26.4565   21.0850    2.0487 O.2       1 UNK        -0.5103 
     37 C          29.0632   28.8141   -0.9331 C.2       5 UNK         0.5055 
     38 O          28.5711   29.4504   -1.8697 O.2       5 UNK        -0.5220 
     39 N          30.3238   28.9407   -0.5042 N.am      6 UNK        -0.4450 
     40 CA         31.3000   29.9029   -1.0080 C.3       6 UNK         0.0367 
     41 CB         32.5702   29.1445   -1.4474 C.3       6 UNK        -0.1929 
     42 C          31.5363   30.9688    0.0767 C.2       6 UNK         0.5070 
     43 O          30.5700   31.5798    0.5381 O.2       6 UNK        -0.5237 
     44 N          32.7972   31.1830    0.4760 N.am      7 UNK        -0.4739 
     45 CA         33.2210   32.1457    1.4967 C.3       7 UNK         0.0276 
     46 CB         34.7366   32.3819    1.3560 C.3       7 UNK        -0.1927 
     47 C          32.8397   31.6902    2.9175 C.2       7 UNK         0.5013 
     48 O          33.7096   31.2899    3.6937 O.2       7 UNK        -0.5193 
     49 N          31.5409   31.7425    3.2392 N.am      8 UNK        -0.4253 
     50 CA         30.9597   31.3248    4.5219 C.3       8 UNK         0.0242 
     51 CB         29.4357   31.5133    4.4790 C.3       8 UNK        -0.2000 
     52 C          31.5655   32.0152    5.7577 C.2       8 UNK         0.4948 
     53 O          31.6203   31.3987    6.8207 O.2       8 UNK        -0.5275 
     54 N          32.0631   33.2481    5.5885 N.am      9 UNK        -0.4246 
     55 CA         32.8250   33.9861    6.5991 C.3       9 UNK         0.0261 
     56 CB         33.0145   35.4371    6.1273 C.3       9 UNK        -0.1959 
     57 C          34.1883   33.3496    6.9395 C.2       9 UNK         0.5033 
     58 O          34.6749   33.5543    8.0526 O.2       9 UNK        -0.5390 
     59 N          34.7796   32.6026    5.9954 N.am      10 UNK        -0.4215 
     60 CA         36.0239   31.8576    6.1859 C.3       10 UNK         0.0240 
     61 CB         36.8389   31.8573    4.8808 C.3       10 UNK        -0.1982 
     62 C          35.7399   30.4231    6.6541 C.2       10 UNK         0.4970 
     63 O          36.4128   29.9530    7.5725 O.2       10 UNK        -0.4916 
     64 N          34.7605   29.7556    6.0256 N.am      11 UNK        -0.4279 
     65 CA         34.3407   28.3890    6.3822 C.3       11 UNK         0.1003 
     66 C          33.6440   28.2712    7.7676 C.2       11 UNK         0.5709 
     67 N          32.9217   29.2792    8.2394 N.am      11 UNK        -0.7358 
     68 O          33.7713   27.2451    8.4315 O.2       11 UNK        -0.4999 
     69 C69        33.4781   27.7310    5.2754 C.3       12 UNK        -0.0954 
     70 S70        34.4426   27.3646    3.7715 S.3       12 UNK        -0.2268 
     71 C71        33.3338   27.9297    2.4459 C.3       12 UNK         0.0203 
     72 H72        27.9979   20.4321   -3.1619 H         1 UNK         0.0888 
     73 H73        28.5000   19.3330   -1.8747 H         1 UNK         0.0888 
     74 H74        26.7896   19.4900   -2.2839 H         1 UNK         0.0888 
     75 H75        29.0115   20.4194    0.0388 H         1 UNK         0.3017 
     76 H76        28.3632   23.1403    0.4477 H         1 UNK         0.0873 
     77 H77        29.4437   21.0968    2.4486 H         1 UNK         0.0745 
     78 H78        29.3535   22.7994    2.7705 H         1 UNK         0.0745 
     79 H79        31.9331   23.9833   -0.2554 H         1 UNK         0.0705 
     80 H80        30.2084   23.9562   -0.3117 H         1 UNK         0.0705 
     81 H81        33.0735   25.6342    1.0055 H         1 UNK         0.1334 
     82 H82        30.8543   28.2980    3.5233 H         1 UNK         0.1417 
     83 H83        28.9324   24.8765    1.8402 H         1 UNK         0.1562 
     84 H84        28.5746   27.9441    4.0099 H         1 UNK         0.0748 
     85 H85        28.2180   26.2474    4.2144 H         1 UNK         0.0748 
     86 H86        28.4066   29.0251    1.6553 H         1 UNK         0.0940 
     87 H87        26.8312   29.1097    0.9231 H         1 UNK         0.0940 
     88 H88        28.8737   26.9755    0.0764 H         1 UNK         0.0703 
     89 H89        26.8730   27.9595   -1.7700 H         1 UNK         0.3081 
     90 H90        25.0333   26.4929   -2.3267 H         1 UNK         0.0719 
     91 H91        25.7918   25.1613   -4.3346 H         1 UNK         0.0809 
     92 H92        27.2238   24.6375   -3.4508 H         1 UNK         0.0809 
     93 H93        27.0120   26.3347   -3.8661 H         1 UNK         0.0809 
     94 H94        25.6760   23.7320   -1.4377 H         1 UNK         0.2990 
     95 H95        22.2292   23.1737   -0.6883 H         1 UNK         0.0690 
     96 H96        23.0215   20.8714   -1.2632 H         1 UNK         0.0788 
     97 H97        24.3420   21.5539   -2.2094 H         1 UNK         0.0788 
     98 H98        22.6792   21.8294   -2.6949 H         1 UNK         0.0788 
     99 H99        24.9666   22.3795    0.1296 H         1 UNK         0.2993 
    100 H100       25.0867   24.7355    2.6444 H         1 UNK         0.0949 
    101 H101       25.5174   22.9949    4.4067 H         1 UNK         0.0767 
    102 H102       23.8122   23.3432    4.1694 H         1 UNK         0.0767 
    103 H103       24.4917   21.8667    3.5155 H         1 UNK         0.0767 
    104 H104       26.7783   24.1407    1.3534 H         1 UNK         0.3013 
    105 H105       30.6161   28.3952    0.2950 H         1 UNK         0.3121 
    106 H106       30.9052   30.4289   -1.8798 H         1 UNK         0.0774 
    107 H107       33.3164   29.8228   -1.8636 H         1 UNK         0.0815 
    108 H108       33.0301   28.5969   -0.6250 H         1 UNK         0.0815 
    109 H109       32.3364   28.4203   -2.2281 H         1 UNK         0.0815 
    110 H110       33.5295   30.6286    0.0567 H         1 UNK         0.2987 
    111 H111       32.7165   33.0966    1.3107 H         1 UNK         0.0949 
    112 H112       35.3055   31.4623    1.5010 H         1 UNK         0.0806 
    113 H113       34.9872   32.7804    0.3728 H         1 UNK         0.0806 
    114 H114       35.0906   33.1020    2.0951 H         1 UNK         0.0806 
    115 H115       30.8940   31.9997    2.4999 H         1 UNK         0.3010 
    116 H116       31.1650   30.2605    4.6349 H         1 UNK         0.0829 
    117 H117       28.9859   30.9295    3.6754 H         1 UNK         0.0813 
    118 H118       28.9747   31.1860    5.4121 H         1 UNK         0.0813 
    119 H119       29.1629   32.5586    4.3287 H         1 UNK         0.0813 
    120 H120       31.9622   33.6830    4.6830 H         1 UNK         0.3038 
    121 H121       32.2341   33.9993    7.5175 H         1 UNK         0.0769 
    122 H122       33.5538   36.0221    6.8738 H         1 UNK         0.0811 
    123 H123       32.0563   35.9305    5.9634 H         1 UNK         0.0811 
    124 H124       33.5846   35.4896    5.1989 H         1 UNK         0.0811 
    125 H125       34.2890   32.4266    5.1236 H         1 UNK         0.3204 
    126 H126       36.6289   32.3474    6.9521 H         1 UNK         0.0748 
    127 H127       37.7944   31.3504    5.0213 H         1 UNK         0.0771 
    128 H128       36.3184   31.3465    4.0703 H         1 UNK         0.0771 
    129 H129       37.0565   32.8730    4.5501 H         1 UNK         0.0771 
    130 H130       34.2827   30.1946    5.2460 H         1 UNK         0.2980 
    131 H131       35.2535   27.7955    6.4682 H         1 UNK         0.0545 
    132 H132       32.7167   30.0974    7.6736 H         1 UNK         0.3459 
    133 H133       32.4873   29.1839    9.1427 H         1 UNK         0.3459 
    134 H134       32.6332   28.3755    5.0354 H         1 UNK         0.0616 
    135 H135       33.0548   26.7840    5.6160 H         1 UNK         0.0616 
    136 H136       33.0382   28.9579    2.6348 H         1 UNK         0.0634 
    137 H137       33.8953   27.9416    1.5115 H         1 UNK         0.0634 
@<TRIPOS>BOND
     1    1    2 1    
     2    1   72 1    
     3    1   73 1    
     4    1   74 1    
     5    2    3 2    
     6    2    4 am   BACKBONE|DICT|INTERRES
     7    4    5 1    
     8    4   75 1    
     9    5    6 1    
    10    5   35 1    
    11    5   76 1    
    12    6    7 1    
    13    6   77 1    
    14    6   78 1    
    15    7    8 1    
    16    8    9 1    
    17    8   79 1    
    18    8   80 1    
    19    9   10 ar   
    20    9   14 ar   
    21   10   11 ar   
    22   10   81 1    
    23   11   12 ar   
    24   11   71 1    
    25   12   13 ar   
    26   12   82 1    
    27   13   14 ar   
    28   13   15 1    
    29   14   83 1    
    30   15   16 1    
    31   15   84 1    
    32   15   85 1    
    33   16   17 1    
    34   17   18 1    
    35   17   86 1    
    36   17   87 1    
    37   18   19 1    
    38   18   37 1    
    39   18   88 1    
    40   19   20 am   BACKBONE|DICT|INTERRES
    41   19   89 1    
    42   20   21 2    
    43   20   22 1    
    44   22   23 1    
    45   22   24 1    
    46   22   90 1    
    47   23   91 1    
    48   23   92 1    
    49   23   93 1    
    50   24   25 am   BACKBONE|DICT|INTERRES
    51   24   94 1    
    52   25   26 2    
    53   25   27 1    
    54   27   28 1    
    55   27   29 1    
    56   27   95 1    
    57   28   96 1    
    58   28   97 1    
    59   28   98 1    
    60   29   30 am   BACKBONE|DICT|INTERRES
    61   29   99 1    
    62   30   31 2    
    63   30   32 1    
    64   32   33 1    
    65   32   34 1    
    66   32  100 1    
    67   33  101 1    
    68   33  102 1    
    69   33  103 1    
    70   34   35 am   BACKBONE|DICT|INTERRES
    71   34  104 1    
    72   35   36 2    
    73   37   38 2    
    74   37   39 am   BACKBONE|DICT|INTERRES
    75   39   40 1    
    76   39  105 1    
    77   40   41 1    
    78   40   42 1    
    79   40  106 1    
    80   41  107 1    
    81   41  108 1    
    82   41  109 1    
    83   42   43 2    
    84   42   44 am   BACKBONE|DICT|INTERRES
    85   44   45 1    
    86   44  110 1    
    87   45   46 1    
    88   45   47 1    
    89   45  111 1    
    90   46  112 1    
    91   46  113 1    
    92   46  114 1    
    93   47   48 2    
    94   47   49 am   BACKBONE|DICT|INTERRES
    95   49   50 1    
    96   49  115 1    
    97   50   51 1    
    98   50   52 1    
    99   50  116 1    
   100   51  117 1    
   101   51  118 1    
   102   51  119 1    
   103   52   53 2    
   104   52   54 am   BACKBONE|DICT|INTERRES
   105   54   55 1    
   106   54  120 1    
   107   55   56 1    
   108   55   57 1    
   109   55  121 1    
   110   56  122 1    
   111   56  123 1    
   112   56  124 1    
   113   57   58 2    
   114   57   59 am   BACKBONE|DICT|INTERRES
   115   59   60 1    
   116   59  125 1    
   117   60   61 1    
   118   60   62 1    
   119   60  126 1    
   120   61  127 1    
   121   61  128 1    
   122   61  129 1    
   123   62   63 2    
   124   62   64 am   BACKBONE|DICT|INTERRES
   125   64   65 1    
   126   64  130 1    
   127   65   66 1    
   128   65   69 1    
   129   65  131 1    
   130   66   67 am   BACKBONE|DICT|INTERRES
   131   66   68 2    
   132   67  132 1    
   133   67  133 1    
   134   69   70 1    
   135   69  134 1    
   136   69  135 1    
   137   70   71 1    
   138   71  136 1    
   139   71  137 1    
@<TRIPOS>SUBSTRUCTURE
     1 UNK         1 GROUP             0       ****    0 ROOT    
