@<TRIPOS>MOLECULE
3R136
137   139    1
SMALL
USER_CHARGES


@<TRIPOS>ATOM
      1 CA         27.7236   18.5159   -2.0679 C.3       0 UNK        -0.1979 
      2 C          28.5646   18.9638   -0.8753 C.2       0 UNK         0.4864 
      3 O          28.8299   18.1563    0.0132 O.2       0 UNK        -0.5359 
      4 N          29.0047   20.2288   -0.8016 N.am      1 UNK        -0.4318 
      5 CA         28.7511   21.3163   -1.7581 C.3       1 UNK         0.0824 
      6 C6         29.9136   22.3427   -1.7552 C.3       12 UNK        -0.0944 
      7 S7         30.0033   23.3655   -0.2472 S.3       12 UNK        -0.2672 
      8 C8         31.4476   22.6925    0.6187 C.3       12 UNK         0.0333 
      9 C9         31.6048   23.4148    1.9442 C.ar      12 UNK        -0.0807 
     10 C10        32.5933   24.3871    2.1149 C.ar      12 UNK        -0.0894 
     11 C11        32.6857   25.0995    3.3147 C.ar      12 UNK        -0.0804 
     12 C12        31.7809   24.8320    4.3474 C.ar      12 UNK        -0.0824 
     13 C13        30.7752   23.8756    4.1753 C.ar      12 UNK        -0.0762 
     14 C14        30.7078   23.1540    2.9821 C.ar      12 UNK        -0.0782 
     15 C15        29.7237   23.6553    5.2510 C.3       12 UNK         0.0230 
     16 S16        28.5555   25.0514    5.3517 S.3       12 UNK        -0.2608 
     17 C17        27.9067   25.1906    3.6434 C.3       12 UNK        -0.0989 
     18 CA         28.5581   26.3257    2.8040 C.3       5 UNK         0.0716 
     19 N          28.2001   26.1997    1.3829 N.am      5 UNK        -0.4135 
     20 C          28.6861   26.9677    0.3920 C.2       4 UNK         0.5031 
     21 O          29.6040   27.7715    0.5525 O.2       4 UNK        -0.5229 
     22 CA         27.9825   26.9240   -0.9837 C.3       4 UNK         0.0329 
     23 CB         28.8665   26.3055   -2.0777 C.3       4 UNK        -0.2001 
     24 N          26.6698   26.2707   -0.9845 N.am      4 UNK        -0.4303 
     25 C          25.5987   26.7140   -0.3112 C.2       3 UNK         0.5044 
     26 O          25.6005   27.7465    0.3584 O.2       3 UNK        -0.5152 
     27 CA         24.3308   25.8423   -0.3325 C.3       3 UNK         0.0319 
     28 CB         23.3582   26.3433   -1.4118 C.3       3 UNK        -0.2001 
     29 N          24.5598   24.4043   -0.5196 N.am      3 UNK        -0.4354 
     30 C          25.3529   23.6205    0.2261 C.2       2 UNK         0.4964 
     31 O          26.0779   24.0405    1.1303 O.2       2 UNK        -0.5047 
     32 CA         25.3366   22.1100   -0.0743 C.3       2 UNK         0.0288 
     33 CB         24.2522   21.6636   -1.0840 C.3       2 UNK        -0.2113 
     34 N          26.6586   21.6259   -0.4805 N.am      2 UNK        -0.4145 
     35 C          27.3677   21.9876   -1.5629 C.2       1 UNK         0.5006 
     36 O          26.9770   22.8090   -2.3949 O.2       1 UNK        -0.5103 
     37 C          28.2324   27.7309    3.3778 C.2       5 UNK         0.5055 
     38 O          28.8915   28.1683    4.3219 O.2       5 UNK        -0.5220 
     39 N          27.2537   28.4386    2.7872 N.am      6 UNK        -0.4450 
     40 CA         26.8555   29.7977    3.1668 C.3       6 UNK         0.0367 
     41 CB         25.4891   30.1200    2.5397 C.3       6 UNK        -0.1929 
     42 C          27.8825   30.8935    2.8146 C.2       6 UNK         0.5070 
     43 O          27.6693   32.0439    3.2019 O.2       6 UNK        -0.5237 
     44 N          28.9742   30.5566    2.1094 N.am      7 UNK        -0.4739 
     45 CA         30.0859   31.4537    1.7692 C.3       7 UNK         0.0276 
     46 CB         30.9065   30.8207    0.6307 C.3       7 UNK        -0.1927 
     47 C          30.9621   31.7996    2.9925 C.2       7 UNK         0.5013 
     48 O          32.1667   31.5361    2.9905 O.2       7 UNK        -0.5193 
     49 N          30.3429   32.3962    4.0198 N.am      8 UNK        -0.4253 
     50 CA         30.9160   32.7210    5.3315 C.3       8 UNK         0.0242 
     51 CB         29.8281   33.3581    6.2098 C.3       8 UNK        -0.2000 
     52 C          32.1712   33.6110    5.3006 C.2       8 UNK         0.4948 
     53 O          32.9683   33.5490    6.2362 O.2       8 UNK        -0.5275 
     54 N          32.3581   34.3802    4.2187 N.am      9 UNK        -0.4246 
     55 CA         33.5767   35.1440    3.9347 C.3       9 UNK         0.0261 
     56 CB         33.3546   36.0004    2.6775 C.3       9 UNK        -0.1959 
     57 C          34.8341   34.2652    3.7723 C.2       9 UNK         0.5033 
     58 O          35.9352   34.7485    4.0410 O.2       9 UNK        -0.5390 
     59 N          34.6513   33.0055    3.3522 N.am      10 UNK        -0.4215 
     60 CA         35.7002   31.9912    3.2574 C.3       10 UNK         0.0240 
     61 CB         35.6891   31.3793    1.8459 C.3       10 UNK        -0.1982 
     62 C          35.5026   30.8975    4.3175 C.2       10 UNK         0.4970 
     63 O          36.4729   30.5091    4.9689 O.2       10 UNK        -0.4916 
     64 N          34.2640   30.4095    4.4573 N.am      11 UNK        -0.4279 
     65 CA         33.8999   29.2654    5.3065 C.3       11 UNK         0.1003 
     66 C          33.6773   29.5998    6.8082 C.2       11 UNK         0.5709 
     67 N          33.6639   30.8575    7.2301 N.am      11 UNK        -0.7358 
     68 O          33.5325   28.6886    7.6196 O.2       11 UNK        -0.4999 
     69 C69        32.7005   28.4824    4.7085 C.3       12 UNK        -0.0954 
     70 S70        33.0896   27.8202    3.0529 S.3       12 UNK        -0.2268 
     71 C71        33.7472   26.1757    3.4741 C.3       12 UNK         0.0203 
     72 H72        28.3067   18.5549   -2.9875 H         1 UNK         0.0888 
     73 H73        27.3883   17.4877   -1.9329 H         1 UNK         0.0888 
     74 H74        26.8364   19.1370   -2.1850 H         1 UNK         0.0888 
     75 H75        29.5612   20.4927   -0.0016 H         1 UNK         0.3017 
     76 H76        28.7315   20.8866   -2.7610 H         1 UNK         0.0873 
     77 H77        29.8108   23.0171   -2.6071 H         1 UNK         0.0745 
     78 H78        30.8658   21.8319   -1.9076 H         1 UNK         0.0745 
     79 H79        32.3370   22.8129   -0.0019 H         1 UNK         0.0705 
     80 H80        31.3198   21.6229    0.7896 H         1 UNK         0.0705 
     81 H81        33.2755   24.6081    1.3052 H         1 UNK         0.1334 
     82 H82        31.8301   25.3940    5.2695 H         1 UNK         0.1417 
     83 H83        29.9239   22.4231    2.8366 H         1 UNK         0.1562 
     84 H84        30.2135   23.5308    6.2177 H         1 UNK         0.0748 
     85 H85        29.1654   22.7354    5.0695 H         1 UNK         0.0748 
     86 H86        26.8257   25.3331    3.6975 H         1 UNK         0.0940 
     87 H87        28.0442   24.2313    3.1425 H         1 UNK         0.0940 
     88 H88        29.6425   26.2093    2.8560 H         1 UNK         0.0703 
     89 H89        27.4594   25.5395    1.1677 H         1 UNK         0.3081 
     90 H90        27.8190   27.9685   -1.2578 H         1 UNK         0.0719 
     91 H91        28.8659   25.2188   -2.0317 H         1 UNK         0.0809 
     92 H92        28.5140   26.5887   -3.0695 H         1 UNK         0.0809 
     93 H93        29.9012   26.6414   -1.9948 H         1 UNK         0.0809 
     94 H94        26.5923   25.3962   -1.4865 H         1 UNK         0.2990 
     95 H95        23.8495   25.9625    0.6401 H         1 UNK         0.0690 
     96 H96        23.7652   26.2090   -2.4149 H         1 UNK         0.0788 
     97 H97        23.1473   27.4064   -1.2851 H         1 UNK         0.0788 
     98 H98        22.4037   25.8189   -1.3622 H         1 UNK         0.0788 
     99 H99        24.0272   23.9602   -1.2537 H         1 UNK         0.2993 
    100 H100       25.1127   21.6249    0.8771 H         1 UNK         0.0949 
    101 H101       24.4000   22.0939   -2.0751 H         1 UNK         0.0767 
    102 H102       24.2518   20.5793   -1.1974 H         1 UNK         0.0767 
    103 H103       23.2547   21.9446   -0.7428 H         1 UNK         0.0767 
    104 H104       27.1006   20.9863    0.1645 H         1 UNK         0.3013 
    105 H105       26.7635   28.0398    1.9917 H         1 UNK         0.3121 
    106 H106       26.7375   29.8153    4.2523 H         1 UNK         0.0774 
    107 H107       25.1103   31.0781    2.8981 H         1 UNK         0.0815 
    108 H108       25.5508   30.1832    1.4527 H         1 UNK         0.0815 
    109 H109       24.7447   29.3644    2.7913 H         1 UNK         0.0815 
    110 H110       29.0900   29.5876    1.8370 H         1 UNK         0.2987 
    111 H111       29.6690   32.3920    1.3971 H         1 UNK         0.0949 
    112 H112       31.3685   29.8828    0.9433 H         1 UNK         0.0806 
    113 H113       30.2855   30.6125   -0.2407 H         1 UNK         0.0806 
    114 H114       31.7079   31.4862    0.3071 H         1 UNK         0.0806 
    115 H115       29.3409   32.5387    3.9142 H         1 UNK         0.3010 
    116 H116       31.2108   31.7744    5.7889 H         1 UNK         0.0829 
    117 H117       30.2106   33.5814    7.2070 H         1 UNK         0.0813 
    118 H118       29.4620   34.2927    5.7830 H         1 UNK         0.0813 
    119 H119       28.9761   32.6893    6.3342 H         1 UNK         0.0813 
    120 H120       31.6440   34.3763    3.5052 H         1 UNK         0.3038 
    121 H121       33.7528   35.8124    4.7802 H         1 UNK         0.0769 
    122 H122       34.2369   36.6027    2.4556 H         1 UNK         0.0811 
    123 H123       32.5197   36.6893    2.8075 H         1 UNK         0.0811 
    124 H124       33.1514   35.3853    1.7998 H         1 UNK         0.0811 
    125 H125       33.7034   32.6858    3.1716 H         1 UNK         0.3204 
    126 H126       36.6828   32.4381    3.4233 H         1 UNK         0.0748 
    127 H127       36.4550   30.6087    1.7478 H         1 UNK         0.0771 
    128 H128       34.7287   30.9177    1.6099 H         1 UNK         0.0771 
    129 H129       35.8907   32.1356    1.0872 H         1 UNK         0.0771 
    130 H130       33.5134   30.7732    3.8741 H         1 UNK         0.2980 
    131 H131       34.7499   28.5802    5.3049 H         1 UNK         0.0545 
    132 H132       33.7478   31.6380    6.5925 H         1 UNK         0.3459 
    133 H133       33.5297   31.0367    8.2121 H         1 UNK         0.3459 
    134 H134       32.4008   27.6588    5.3575 H         1 UNK         0.0616 
    135 H135       31.8263   29.1302    4.6221 H         1 UNK         0.0616 
    136 H136       34.1450   26.1708    4.4900 H         1 UNK         0.0634 
    137 H137       34.5936   25.9642    2.8191 H         1 UNK         0.0634 
@<TRIPOS>BOND
     1    1    2 1    
     2    1   72 1    
     3    1   73 1    
     4    1   74 1    
     5    2    3 2    
     6    2    4 am   BACKBONE|DICT|INTERRES
     7    4    5 1    
     8    4   75 1    
     9    5    6 1    
    10    5   35 1    
    11    5   76 1    
    12    6    7 1    
    13    6   77 1    
    14    6   78 1    
    15    7    8 1    
    16    8    9 1    
    17    8   79 1    
    18    8   80 1    
    19    9   10 ar   
    20    9   14 ar   
    21   10   11 ar   
    22   10   81 1    
    23   11   12 ar   
    24   11   71 1    
    25   12   13 ar   
    26   12   82 1    
    27   13   14 ar   
    28   13   15 1    
    29   14   83 1    
    30   15   16 1    
    31   15   84 1    
    32   15   85 1    
    33   16   17 1    
    34   17   18 1    
    35   17   86 1    
    36   17   87 1    
    37   18   19 1    
    38   18   37 1    
    39   18   88 1    
    40   19   20 am   BACKBONE|DICT|INTERRES
    41   19   89 1    
    42   20   21 2    
    43   20   22 1    
    44   22   23 1    
    45   22   24 1    
    46   22   90 1    
    47   23   91 1    
    48   23   92 1    
    49   23   93 1    
    50   24   25 am   BACKBONE|DICT|INTERRES
    51   24   94 1    
    52   25   26 2    
    53   25   27 1    
    54   27   28 1    
    55   27   29 1    
    56   27   95 1    
    57   28   96 1    
    58   28   97 1    
    59   28   98 1    
    60   29   30 am   BACKBONE|DICT|INTERRES
    61   29   99 1    
    62   30   31 2    
    63   30   32 1    
    64   32   33 1    
    65   32   34 1    
    66   32  100 1    
    67   33  101 1    
    68   33  102 1    
    69   33  103 1    
    70   34   35 am   BACKBONE|DICT|INTERRES
    71   34  104 1    
    72   35   36 2    
    73   37   38 2    
    74   37   39 am   BACKBONE|DICT|INTERRES
    75   39   40 1    
    76   39  105 1    
    77   40   41 1    
    78   40   42 1    
    79   40  106 1    
    80   41  107 1    
    81   41  108 1    
    82   41  109 1    
    83   42   43 2    
    84   42   44 am   BACKBONE|DICT|INTERRES
    85   44   45 1    
    86   44  110 1    
    87   45   46 1    
    88   45   47 1    
    89   45  111 1    
    90   46  112 1    
    91   46  113 1    
    92   46  114 1    
    93   47   48 2    
    94   47   49 am   BACKBONE|DICT|INTERRES
    95   49   50 1    
    96   49  115 1    
    97   50   51 1    
    98   50   52 1    
    99   50  116 1    
   100   51  117 1    
   101   51  118 1    
   102   51  119 1    
   103   52   53 2    
   104   52   54 am   BACKBONE|DICT|INTERRES
   105   54   55 1    
   106   54  120 1    
   107   55   56 1    
   108   55   57 1    
   109   55  121 1    
   110   56  122 1    
   111   56  123 1    
   112   56  124 1    
   113   57   58 2    
   114   57   59 am   BACKBONE|DICT|INTERRES
   115   59   60 1    
   116   59  125 1    
   117   60   61 1    
   118   60   62 1    
   119   60  126 1    
   120   61  127 1    
   121   61  128 1    
   122   61  129 1    
   123   62   63 2    
   124   62   64 am   BACKBONE|DICT|INTERRES
   125   64   65 1    
   126   64  130 1    
   127   65   66 1    
   128   65   69 1    
   129   65  131 1    
   130   66   67 am   BACKBONE|DICT|INTERRES
   131   66   68 2    
   132   67  132 1    
   133   67  133 1    
   134   69   70 1    
   135   69  134 1    
   136   69  135 1    
   137   70   71 1    
   138   71  136 1    
   139   71  137 1    
@<TRIPOS>SUBSTRUCTURE
     1 UNK         1 GROUP             0       ****    0 ROOT    
