@<TRIPOS>MOLECULE
3R136
137   139    1
SMALL
USER_CHARGES


@<TRIPOS>ATOM
      1 CA         27.3352   21.5028   -3.3844 C.3       0 UNK        -0.1979 
      2 C          27.8071   22.5914   -2.4321 C.2       0 UNK         0.4864 
      3 O          27.6721   23.7752   -2.7428 O.2       0 UNK        -0.5359 
      4 N          28.3594   22.1991   -1.2755 N.am      1 UNK        -0.4318 
      5 CA         28.8815   23.1057   -0.2425 C.3       1 UNK         0.0824 
      6 C6         29.7800   22.3701    0.7819 C.3       12 UNK        -0.0944 
      7 S7         31.1715   21.5093   -0.0233 S.3       12 UNK        -0.2672 
      8 C8         32.3196   21.2771    1.3758 C.3       12 UNK         0.0333 
      9 C9         32.9720   22.5625    1.8827 C.ar      12 UNK        -0.0807 
     10 C10        33.2471   22.6974    3.2474 C.ar      12 UNK        -0.0894 
     11 C11        33.8905   23.8376    3.7378 C.ar      12 UNK        -0.0804 
     12 C12        34.2454   24.8612    2.8546 C.ar      12 UNK        -0.0824 
     13 C13        33.9771   24.7425    1.4879 C.ar      12 UNK        -0.0762 
     14 C14        33.3524   23.5875    1.0076 C.ar      12 UNK        -0.0782 
     15 C15        34.4000   25.8428    0.5238 C.3       12 UNK         0.0230 
     16 S16        32.9854   26.6066   -0.3320 S.3       12 UNK        -0.2608 
     17 C17        32.1257   27.4650    1.0299 C.3       12 UNK        -0.0989 
     18 CA         30.6083   27.1400    1.0580 C.3       5 UNK         0.0716 
     19 N          30.0093   27.3185    2.3849 N.am      5 UNK        -0.4135 
     20 C          29.9009   28.4665    3.0713 C.2       4 UNK         0.5031 
     21 O          30.3726   29.5457    2.6984 O.2       4 UNK        -0.5229 
     22 CA         29.1318   28.3949    4.4093 C.3       4 UNK         0.0329 
     23 CB         28.6334   29.7779    4.8733 C.3       4 UNK        -0.2001 
     24 N          28.0277   27.4265    4.4517 N.am      4 UNK        -0.4303 
     25 C          26.9747   27.3583    3.6272 C.2       3 UNK         0.5044 
     26 O          26.8294   28.0553    2.6199 O.2       3 UNK        -0.5152 
     27 CA         25.8864   26.3489    4.0065 C.3       3 UNK         0.0319 
     28 CB         24.6768   27.0675    4.6260 C.3       3 UNK        -0.2001 
     29 N          25.4726   25.6679    2.7875 N.am      3 UNK        -0.4354 
     30 C          25.5461   24.3501    2.5739 C.2       2 UNK         0.4964 
     31 O          25.8105   23.5216    3.4470 O.2       2 UNK        -0.5047 
     32 CA         25.3257   23.8638    1.1280 C.3       2 UNK         0.0288 
     33 CB         24.7365   24.9346    0.1815 C.3       2 UNK        -0.2113 
     34 N          26.5538   23.3068    0.5472 N.am      2 UNK        -0.4145 
     35 C          27.7657   23.8866    0.4830 C.2       1 UNK         0.5006 
     36 O          28.0283   24.9950    0.9545 O.2       1 UNK        -0.5103 
     37 C          29.7878   27.8992   -0.0089 C.2       5 UNK         0.5055 
     38 O          30.2902   28.8303   -0.6377 O.2       5 UNK        -0.5220 
     39 N          28.5147   27.5062   -0.1549 N.am      6 UNK        -0.4450 
     40 CA         27.5038   28.0907   -1.0449 C.3       6 UNK         0.0367 
     41 CB         27.8373   27.7849   -2.5200 C.3       6 UNK        -0.1929 
     42 C          27.2656   29.5895   -0.7722 C.2       6 UNK         0.5070 
     43 O          27.2190   30.3911   -1.7069 O.2       6 UNK        -0.5237 
     44 N          27.1275   29.9300    0.5177 N.am      7 UNK        -0.4739 
     45 CA         26.9076   31.2718    1.0696 C.3       7 UNK         0.0276 
     46 CB         25.5319   31.8242    0.6391 C.3       7 UNK        -0.1927 
     47 C          28.0606   32.2637    0.8065 C.2       7 UNK         0.5013 
     48 O          27.8245   33.4726    0.7727 O.2       7 UNK        -0.5193 
     49 N          29.2935   31.7546    0.6637 N.am      8 UNK        -0.4253 
     50 CA         30.5108   32.5589    0.4975 C.3       8 UNK         0.0242 
     51 CB         31.5993   31.6990   -0.1642 C.3       8 UNK        -0.2000 
     52 C          31.0384   33.1601    1.8143 C.2       8 UNK         0.4948 
     53 O          31.9829   33.9493    1.7671 O.2       8 UNK        -0.5275 
     54 N          30.4446   32.7670    2.9520 N.am      9 UNK        -0.4246 
     55 CA         30.8281   33.1124    4.3271 C.3       9 UNK         0.0261 
     56 CB         30.7693   34.6359    4.5754 C.3       9 UNK        -0.1959 
     57 C          32.1696   32.4766    4.7433 C.2       9 UNK         0.5033 
     58 O          32.8966   33.0531    5.5553 O.2       9 UNK        -0.5390 
     59 N          32.4603   31.2904    4.1940 N.am      10 UNK        -0.4215 
     60 CA         33.5906   30.4412    4.5685 C.3       10 UNK         0.0240 
     61 CB         34.2320   29.8932    3.2812 C.3       10 UNK        -0.1982 
     62 C          33.0946   29.3090    5.4846 C.2       10 UNK         0.4970 
     63 O          31.9265   29.3031    5.8764 O.2       10 UNK        -0.4916 
     64 N          33.9857   28.3674    5.8176 N.am      11 UNK        -0.4279 
     65 CA         33.7183   27.1314    6.5792 C.3       11 UNK         0.1003 
     66 C          33.3730   27.3213    8.0886 C.2       11 UNK         0.5709 
     67 N          32.7728   28.4295    8.4997 N.am      11 UNK        -0.7358 
     68 O          33.6943   26.4636    8.9074 O.2       11 UNK        -0.4999 
     69 C69        32.6926   26.2170    5.8446 C.3       12 UNK        -0.0954 
     70 S70        32.8471   24.4464    6.2510 S.3       12 UNK        -0.2268 
     71 C71        34.2517   23.9343    5.2132 C.3       12 UNK         0.0203 
     72 H72        26.2657   21.6029   -3.5678 H         1 UNK         0.0888 
     73 H73        27.8544   21.5889   -4.3385 H         1 UNK         0.0888 
     74 H74        27.5196   20.5048   -2.9872 H         1 UNK         0.0888 
     75 H75        28.4772   21.2130   -1.0893 H         1 UNK         0.3017 
     76 H76        29.4992   23.8516   -0.7485 H         1 UNK         0.0873 
     77 H77        29.2046   21.6392    1.3535 H         1 UNK         0.0745 
     78 H78        30.1839   23.0809    1.5061 H         1 UNK         0.0745 
     79 H79        33.1102   20.5942    1.0626 H         1 UNK         0.0705 
     80 H80        31.7819   20.7768    2.1828 H         1 UNK         0.0705 
     81 H81        32.9802   21.9033    3.9318 H         1 UNK         0.1334 
     82 H82        34.7486   25.7417    3.2302 H         1 UNK         0.1417 
     83 H83        33.1668   23.4913   -0.0534 H         1 UNK         0.1562 
     84 H84        35.0728   25.4179   -0.2224 H         1 UNK         0.0748 
     85 H85        34.9669   26.6210    1.0376 H         1 UNK         0.0748 
     86 H86        32.3042   28.5374    0.9465 H         1 UNK         0.0940 
     87 H87        32.5785   27.1606    1.9739 H         1 UNK         0.0940 
     88 H88        30.4980   26.0769    0.8377 H         1 UNK         0.0703 
     89 H89        29.5531   26.5013    2.7645 H         1 UNK         0.3081 
     90 H90        29.8507   28.0389    5.1462 H         1 UNK         0.0719 
     91 H91        28.0967   29.7108    5.8194 H         1 UNK         0.0809 
     92 H92        27.9692   30.2360    4.1408 H         1 UNK         0.0809 
     93 H93        29.4732   30.4521    5.0327 H         1 UNK         0.0809 
     94 H94        28.0497   26.7886    5.2357 H         1 UNK         0.2990 
     95 H95        26.2895   25.6397    4.7326 H         1 UNK         0.0690 
     96 H96        23.8894   26.3605    4.8875 H         1 UNK         0.0788 
     97 H97        24.2511   27.8050    3.9439 H         1 UNK         0.0788 
     98 H98        24.9599   27.5920    5.5396 H         1 UNK         0.0788 
     99 H99        25.3253   26.2750    1.9927 H         1 UNK         0.2993 
    100 H100       24.6066   23.0454    1.1907 H         1 UNK         0.0949 
    101 H101       25.4212   25.7674    0.0272 H         1 UNK         0.0767 
    102 H102       24.5183   24.5087   -0.7981 H         1 UNK         0.0767 
    103 H103       23.7993   25.3360    0.5697 H         1 UNK         0.0767 
    104 H104       26.4657   22.3811    0.1533 H         1 UNK         0.3013 
    105 H105       28.2053   26.7094    0.4008 H         1 UNK         0.3121 
    106 H106       26.5632   27.5924   -0.8126 H         1 UNK         0.0774 
    107 H107       27.0375   28.1233   -3.1797 H         1 UNK         0.0815 
    108 H108       28.7543   28.2814   -2.8390 H         1 UNK         0.0815 
    109 H109       27.9600   26.7140   -2.6835 H         1 UNK         0.0815 
    110 H110       27.1541   29.1823    1.2114 H         1 UNK         0.2987 
    111 H111       26.8755   31.1409    2.1518 H         1 UNK         0.0949 
    112 H112       25.5012   32.0490   -0.4274 H         1 UNK         0.0806 
    113 H113       24.7340   31.1142    0.8564 H         1 UNK         0.0806 
    114 H114       25.2950   32.7463    1.1714 H         1 UNK         0.0806 
    115 H115       29.4167   30.7493    0.6960 H         1 UNK         0.3010 
    116 H116       30.2875   33.3932   -0.1708 H         1 UNK         0.0829 
    117 H117       31.2683   31.3136   -1.1287 H         1 UNK         0.0813 
    118 H118       32.5064   32.2778   -0.3430 H         1 UNK         0.0813 
    119 H119       31.8725   30.8498    0.4627 H         1 UNK         0.0813 
    120 H120       29.7132   32.0758    2.8613 H         1 UNK         0.3038 
    121 H121       30.0733   32.6629    4.9720 H         1 UNK         0.0769 
    122 H122       31.5644   35.1665    4.0514 H         1 UNK         0.0811 
    123 H123       29.8159   35.0546    4.2536 H         1 UNK         0.0811 
    124 H124       30.8793   34.8609    5.6369 H         1 UNK         0.0811 
    125 H125       31.7632   30.8530    3.5993 H         1 UNK         0.3204 
    126 H126       34.3384   31.0177    5.1166 H         1 UNK         0.0748 
    127 H127       35.1526   29.3475    3.4895 H         1 UNK         0.0771 
    128 H128       33.5590   29.2153    2.7604 H         1 UNK         0.0771 
    129 H129       34.4885   30.6997    2.5935 H         1 UNK         0.0771 
    130 H130       34.9400   28.4796    5.5083 H         1 UNK         0.2980 
    131 H131       34.6800   26.6180    6.5718 H         1 UNK         0.0545 
    132 H132       32.4397   29.0893    7.8079 H         1 UNK         0.3459 
    133 H133       32.5651   28.5576    9.4771 H         1 UNK         0.3459 
    134 H134       31.6720   26.5305    6.0697 H         1 UNK         0.0616 
    135 H135       32.7923   26.3216    4.7640 H         1 UNK         0.0616 
    136 H136       34.5989   22.9603    5.5613 H         1 UNK         0.0634 
    137 H137       35.0883   24.6183    5.3607 H         1 UNK         0.0634 
@<TRIPOS>BOND
     1    1    2 1    
     2    1   72 1    
     3    1   73 1    
     4    1   74 1    
     5    2    3 2    
     6    2    4 am   BACKBONE|DICT|INTERRES
     7    4    5 1    
     8    4   75 1    
     9    5    6 1    
    10    5   35 1    
    11    5   76 1    
    12    6    7 1    
    13    6   77 1    
    14    6   78 1    
    15    7    8 1    
    16    8    9 1    
    17    8   79 1    
    18    8   80 1    
    19    9   10 ar   
    20    9   14 ar   
    21   10   11 ar   
    22   10   81 1    
    23   11   12 ar   
    24   11   71 1    
    25   12   13 ar   
    26   12   82 1    
    27   13   14 ar   
    28   13   15 1    
    29   14   83 1    
    30   15   16 1    
    31   15   84 1    
    32   15   85 1    
    33   16   17 1    
    34   17   18 1    
    35   17   86 1    
    36   17   87 1    
    37   18   19 1    
    38   18   37 1    
    39   18   88 1    
    40   19   20 am   BACKBONE|DICT|INTERRES
    41   19   89 1    
    42   20   21 2    
    43   20   22 1    
    44   22   23 1    
    45   22   24 1    
    46   22   90 1    
    47   23   91 1    
    48   23   92 1    
    49   23   93 1    
    50   24   25 am   BACKBONE|DICT|INTERRES
    51   24   94 1    
    52   25   26 2    
    53   25   27 1    
    54   27   28 1    
    55   27   29 1    
    56   27   95 1    
    57   28   96 1    
    58   28   97 1    
    59   28   98 1    
    60   29   30 am   BACKBONE|DICT|INTERRES
    61   29   99 1    
    62   30   31 2    
    63   30   32 1    
    64   32   33 1    
    65   32   34 1    
    66   32  100 1    
    67   33  101 1    
    68   33  102 1    
    69   33  103 1    
    70   34   35 am   BACKBONE|DICT|INTERRES
    71   34  104 1    
    72   35   36 2    
    73   37   38 2    
    74   37   39 am   BACKBONE|DICT|INTERRES
    75   39   40 1    
    76   39  105 1    
    77   40   41 1    
    78   40   42 1    
    79   40  106 1    
    80   41  107 1    
    81   41  108 1    
    82   41  109 1    
    83   42   43 2    
    84   42   44 am   BACKBONE|DICT|INTERRES
    85   44   45 1    
    86   44  110 1    
    87   45   46 1    
    88   45   47 1    
    89   45  111 1    
    90   46  112 1    
    91   46  113 1    
    92   46  114 1    
    93   47   48 2    
    94   47   49 am   BACKBONE|DICT|INTERRES
    95   49   50 1    
    96   49  115 1    
    97   50   51 1    
    98   50   52 1    
    99   50  116 1    
   100   51  117 1    
   101   51  118 1    
   102   51  119 1    
   103   52   53 2    
   104   52   54 am   BACKBONE|DICT|INTERRES
   105   54   55 1    
   106   54  120 1    
   107   55   56 1    
   108   55   57 1    
   109   55  121 1    
   110   56  122 1    
   111   56  123 1    
   112   56  124 1    
   113   57   58 2    
   114   57   59 am   BACKBONE|DICT|INTERRES
   115   59   60 1    
   116   59  125 1    
   117   60   61 1    
   118   60   62 1    
   119   60  126 1    
   120   61  127 1    
   121   61  128 1    
   122   61  129 1    
   123   62   63 2    
   124   62   64 am   BACKBONE|DICT|INTERRES
   125   64   65 1    
   126   64  130 1    
   127   65   66 1    
   128   65   69 1    
   129   65  131 1    
   130   66   67 am   BACKBONE|DICT|INTERRES
   131   66   68 2    
   132   67  132 1    
   133   67  133 1    
   134   69   70 1    
   135   69  134 1    
   136   69  135 1    
   137   70   71 1    
   138   71  136 1    
   139   71  137 1    
@<TRIPOS>SUBSTRUCTURE
     1 UNK         1 GROUP             0       ****    0 ROOT    
