@<TRIPOS>MOLECULE
3R136
137   139    1
SMALL
USER_CHARGES


@<TRIPOS>ATOM
      1 CA         26.7563   21.5333    1.1352 C.3       0 UNK        -0.1979 
      2 C          27.2555   22.4509    0.0308 C.2       0 UNK         0.4864 
      3 O          26.5096   22.7319   -0.9095 O.2       0 UNK        -0.5359 
      4 N          28.5089   22.9176    0.1313 N.am      1 UNK        -0.4318 
      5 CA         29.1644   23.7993   -0.8429 C.3       1 UNK         0.0824 
      6 C6         30.6695   24.0032   -0.5458 C.3       12 UNK        -0.0944 
      7 S7         31.5822   22.4281   -0.6833 S.3       12 UNK        -0.2672 
      8 C8         33.0055   22.7012    0.4283 C.3       12 UNK         0.0333 
      9 C9         32.6450   22.9453    1.8932 C.ar      12 UNK        -0.0807 
     10 C10        33.4949   23.7323    2.6753 C.ar      12 UNK        -0.0894 
     11 C11        33.1933   24.0065    4.0131 C.ar      12 UNK        -0.0804 
     12 C12        32.0267   23.4762    4.5730 C.ar      12 UNK        -0.0824 
     13 C13        31.1735   22.6722    3.8088 C.ar      12 UNK        -0.0762 
     14 C14        31.4985   22.3953    2.4790 C.ar      12 UNK        -0.0782 
     15 C15        29.8971   22.0993    4.4107 C.3       12 UNK         0.0230 
     16 S16        28.4197   23.0307    3.8832 S.3       12 UNK        -0.2608 
     17 C17        28.7340   24.6516    4.6492 C.3       12 UNK        -0.0989 
     18 CA         29.1572   25.7175    3.5921 C.3       5 UNK         0.0716 
     19 N          28.0028   26.3757    2.9560 N.am      5 UNK        -0.4135 
     20 C          27.1318   27.2012    3.5618 C.2       4 UNK         0.5031 
     21 O          27.1504   27.4664    4.7644 O.2       4 UNK        -0.5229 
     22 CA         26.0405   27.8576    2.6994 C.3       4 UNK         0.0329 
     23 CB         26.5291   29.2014    2.1353 C.3       4 UNK        -0.2001 
     24 N          25.5545   27.0350    1.5956 N.am      4 UNK        -0.4303 
     25 C          24.8544   25.8988    1.6904 C.2       3 UNK         0.5044 
     26 O          24.5647   25.3642    2.7607 O.2       3 UNK        -0.5152 
     27 CA         24.3823   25.2440    0.3732 C.3       3 UNK         0.0319 
     28 CB         22.9457   25.6774    0.0228 C.3       3 UNK        -0.2001 
     29 N          25.2944   25.4257   -0.7680 N.am      3 UNK        -0.4354 
     30 C          25.6535   26.5591   -1.3961 C.2       2 UNK         0.4964 
     31 O          25.1370   27.6536   -1.1680 O.2       2 UNK        -0.5047 
     32 CA         26.8426   26.4756   -2.3782 C.3       2 UNK         0.0288 
     33 CB         27.6171   27.8074   -2.4737 C.3       2 UNK        -0.2113 
     34 N          27.7684   25.3728   -2.0834 N.am      2 UNK        -0.4145 
     35 C          28.4170   25.1415   -0.9300 C.2       1 UNK         0.5006 
     36 O          28.3810   25.8836    0.0559 O.2       1 UNK        -0.5103 
     37 C          30.1555   26.7586    4.1651 C.2       5 UNK         0.5055 
     38 O          30.2663   26.8773    5.3858 O.2       5 UNK        -0.5220 
     39 N          30.8808   27.5211    3.3369 N.am      6 UNK        -0.4450 
     40 CA         30.8584   27.5951    1.8765 C.3       6 UNK         0.0367 
     41 CB         32.2744   27.3031    1.3486 C.3       6 UNK        -0.1929 
     42 C          30.3458   28.9745    1.4277 C.2       6 UNK         0.5070 
     43 O          29.8463   29.7519    2.2462 O.2       6 UNK        -0.5237 
     44 N          30.4537   29.2425    0.1181 N.am      7 UNK        -0.4739 
     45 CA         30.0369   30.4806   -0.5499 C.3       7 UNK         0.0276 
     46 CB         30.4221   30.4003   -2.0359 C.3       7 UNK        -0.1927 
     47 C          30.6449   31.7468    0.0795 C.2       7 UNK         0.5013 
     48 O          31.7959   31.7196    0.5212 O.2       7 UNK        -0.5193 
     49 N          29.8478   32.8252    0.1190 N.am      8 UNK        -0.4253 
     50 CA         30.1607   34.1306    0.7232 C.3       8 UNK         0.0242 
     51 CB         31.2622   34.8523   -0.0834 C.3       8 UNK        -0.2000 
     52 C          30.4862   34.0588    2.2323 C.2       8 UNK         0.4948 
     53 O          31.1865   34.9329    2.7458 O.2       8 UNK        -0.5275 
     54 N          29.9776   33.0150    2.9070 N.am      9 UNK        -0.4246 
     55 CA         30.2113   32.6533    4.3090 C.3       9 UNK         0.0261 
     56 CB         29.6282   33.7172    5.2645 C.3       9 UNK        -0.1959 
     57 C          31.6806   32.3018    4.6240 C.2       9 UNK         0.5033 
     58 O          32.1028   32.4401    5.7750 O.2       9 UNK        -0.5390 
     59 N          32.4349   31.8322    3.6180 N.am      10 UNK        -0.4215 
     60 CA         33.7854   31.2904    3.7880 C.3       10 UNK         0.0240 
     61 CB         34.4282   31.0925    2.4062 C.3       10 UNK        -0.1982 
     62 C          33.7525   29.9607    4.5600 C.2       10 UNK         0.4970 
     63 O          32.7599   29.2398    4.4648 O.2       10 UNK        -0.4916 
     64 N          34.8349   29.6732    5.2951 N.am      11 UNK        -0.4279 
     65 CA         35.0770   28.4668    6.1146 C.3       11 UNK         0.1003 
     66 C          34.0111   28.1086    7.1982 C.2       11 UNK         0.5709 
     67 N          33.0918   29.0005    7.5465 N.am      11 UNK        -0.7358 
     68 O          34.0546   27.0274    7.7810 O.2       11 UNK        -0.4999 
     69 C69        35.5962   27.2483    5.2914 C.3       12 UNK        -0.0954 
     70 S70        34.4047   26.5021    4.1286 S.3       12 UNK        -0.2268 
     71 C71        34.1403   24.8547    4.8548 C.3       12 UNK         0.0203 
     72 H72        26.1676   20.7194    0.7128 H         1 UNK         0.0888 
     73 H73        27.5802   21.0932    1.6965 H         1 UNK         0.0888 
     74 H74        26.1244   22.0894    1.8273 H         1 UNK         0.0888 
     75 H75        29.0581   22.6850    0.9446 H         1 UNK         0.3017 
     76 H76        29.0884   23.3072   -1.8153 H         1 UNK         0.0873 
     77 H77        30.8094   24.4354    0.4467 H         1 UNK         0.0745 
     78 H78        31.1127   24.7074   -1.2526 H         1 UNK         0.0745 
     79 H79        33.5797   23.5440    0.0396 H         1 UNK         0.0705 
     80 H80        33.6593   21.8299    0.3746 H         1 UNK         0.0705 
     81 H81        34.3951   24.1455    2.2404 H         1 UNK         0.1334 
     82 H82        31.7851   23.6869    5.6058 H         1 UNK         0.1417 
     83 H83        30.8456   21.7583    1.8999 H         1 UNK         0.1562 
     84 H84        29.9523   22.0891    5.5004 H         1 UNK         0.0748 
     85 H85        29.7851   21.0582    4.1043 H         1 UNK         0.0748 
     86 H86        29.4940   24.5098    5.4181 H         1 UNK         0.0940 
     87 H87        27.8420   24.9594    5.1955 H         1 UNK         0.0940 
     88 H88        29.6988   25.1921    2.8045 H         1 UNK         0.0703 
     89 H89        27.9201   26.2359    1.9529 H         1 UNK         0.3081 
     90 H90        25.1901   28.0567    3.3551 H         1 UNK         0.0719 
     91 H91        27.3023   29.0610    1.3795 H         1 UNK         0.0809 
     92 H92        25.7124   29.7588    1.6764 H         1 UNK         0.0809 
     93 H93        26.9507   29.8303    2.9211 H         1 UNK         0.0809 
     94 H94        25.6809   27.4091    0.6606 H         1 UNK         0.2990 
     95 H95        24.3635   24.1686    0.5573 H         1 UNK         0.0690 
     96 H96        22.5868   25.1718   -0.8737 H         1 UNK         0.0788 
     97 H97        22.8709   26.7522   -0.1444 H         1 UNK         0.0788 
     98 H98        22.2582   25.4291    0.8324 H         1 UNK         0.0788 
     99 H99        25.8000   24.5796   -1.0189 H         1 UNK         0.2993 
    100 H100       26.4099   26.2678   -3.3580 H         1 UNK         0.0949 
    101 H101       28.4430   27.7315   -3.1806 H         1 UNK         0.0767 
    102 H102       26.9719   28.6161   -2.8192 H         1 UNK         0.0767 
    103 H103       28.0257   28.1069   -1.5078 H         1 UNK         0.0767 
    104 H104       27.8351   24.6693   -2.8065 H         1 UNK         0.3013 
    105 H105       31.5044   28.2027    3.7699 H         1 UNK         0.3121 
    106 H106       30.1894   26.8554    1.4502 H         1 UNK         0.0774 
    107 H107       32.3103   27.2861    0.2593 H         1 UNK         0.0815 
    108 H108       32.9928   28.0476    1.6936 H         1 UNK         0.0815 
    109 H109       32.6200   26.3267    1.6865 H         1 UNK         0.0815 
    110 H110       30.8889   28.5501   -0.4724 H         1 UNK         0.2987 
    111 H111       28.9492   30.5361   -0.4700 H         1 UNK         0.0949 
    112 H112       30.0828   31.2846   -2.5771 H         1 UNK         0.0806 
    113 H113       31.5033   30.3350   -2.1666 H         1 UNK         0.0806 
    114 H114       29.9743   29.5351   -2.5226 H         1 UNK         0.0806 
    115 H115       28.9190   32.7453   -0.2731 H         1 UNK         0.3010 
    116 H116       29.2513   34.7283    0.6445 H         1 UNK         0.0829 
    117 H117       31.0105   34.9031   -1.1426 H         1 UNK         0.0813 
    118 H118       31.3965   35.8772    0.2648 H         1 UNK         0.0813 
    119 H119       32.2258   34.3500    0.0091 H         1 UNK         0.0813 
    120 H120       29.4481   32.3341    2.3786 H         1 UNK         0.3038 
    121 H121       29.6527   31.7297    4.4700 H         1 UNK         0.0769 
    122 H122       29.6582   33.3722    6.2987 H         1 UNK         0.0811 
    123 H123       28.5869   33.9356    5.0284 H         1 UNK         0.0811 
    124 H124       30.1872   34.6522    5.2197 H         1 UNK         0.0811 
    125 H125       32.0170   31.7265    2.6999 H         1 UNK         0.3204 
    126 H126       34.3761   32.0154    4.3519 H         1 UNK         0.0748 
    127 H127       35.4501   30.7219    2.4961 H         1 UNK         0.0771 
    128 H128       33.8716   30.3733    1.8039 H         1 UNK         0.0771 
    129 H129       34.4692   32.0295    1.8502 H         1 UNK         0.0771 
    130 H130       35.5833   30.3505    5.3153 H         1 UNK         0.2980 
    131 H131       35.9270   28.7658    6.7288 H         1 UNK         0.0545 
    132 H132       32.4185   28.7609    8.2561 H         1 UNK         0.3459 
    133 H133       33.0264   29.8822    7.0626 H         1 UNK         0.3459 
    134 H134       36.4617   27.5589    4.7048 H         1 UNK         0.0616 
    135 H135       35.9732   26.4756    5.9634 H         1 UNK         0.0616 
    136 H136       33.7555   24.9753    5.8685 H         1 UNK         0.0634 
    137 H137       35.0980   24.3396    4.9392 H         1 UNK         0.0634 
@<TRIPOS>BOND
     1    1    2 1    
     2    1   72 1    
     3    1   73 1    
     4    1   74 1    
     5    2    3 2    
     6    2    4 am   BACKBONE|DICT|INTERRES
     7    4    5 1    
     8    4   75 1    
     9    5    6 1    
    10    5   35 1    
    11    5   76 1    
    12    6    7 1    
    13    6   77 1    
    14    6   78 1    
    15    7    8 1    
    16    8    9 1    
    17    8   79 1    
    18    8   80 1    
    19    9   10 ar   
    20    9   14 ar   
    21   10   11 ar   
    22   10   81 1    
    23   11   12 ar   
    24   11   71 1    
    25   12   13 ar   
    26   12   82 1    
    27   13   14 ar   
    28   13   15 1    
    29   14   83 1    
    30   15   16 1    
    31   15   84 1    
    32   15   85 1    
    33   16   17 1    
    34   17   18 1    
    35   17   86 1    
    36   17   87 1    
    37   18   19 1    
    38   18   37 1    
    39   18   88 1    
    40   19   20 am   BACKBONE|DICT|INTERRES
    41   19   89 1    
    42   20   21 2    
    43   20   22 1    
    44   22   23 1    
    45   22   24 1    
    46   22   90 1    
    47   23   91 1    
    48   23   92 1    
    49   23   93 1    
    50   24   25 am   BACKBONE|DICT|INTERRES
    51   24   94 1    
    52   25   26 2    
    53   25   27 1    
    54   27   28 1    
    55   27   29 1    
    56   27   95 1    
    57   28   96 1    
    58   28   97 1    
    59   28   98 1    
    60   29   30 am   BACKBONE|DICT|INTERRES
    61   29   99 1    
    62   30   31 2    
    63   30   32 1    
    64   32   33 1    
    65   32   34 1    
    66   32  100 1    
    67   33  101 1    
    68   33  102 1    
    69   33  103 1    
    70   34   35 am   BACKBONE|DICT|INTERRES
    71   34  104 1    
    72   35   36 2    
    73   37   38 2    
    74   37   39 am   BACKBONE|DICT|INTERRES
    75   39   40 1    
    76   39  105 1    
    77   40   41 1    
    78   40   42 1    
    79   40  106 1    
    80   41  107 1    
    81   41  108 1    
    82   41  109 1    
    83   42   43 2    
    84   42   44 am   BACKBONE|DICT|INTERRES
    85   44   45 1    
    86   44  110 1    
    87   45   46 1    
    88   45   47 1    
    89   45  111 1    
    90   46  112 1    
    91   46  113 1    
    92   46  114 1    
    93   47   48 2    
    94   47   49 am   BACKBONE|DICT|INTERRES
    95   49   50 1    
    96   49  115 1    
    97   50   51 1    
    98   50   52 1    
    99   50  116 1    
   100   51  117 1    
   101   51  118 1    
   102   51  119 1    
   103   52   53 2    
   104   52   54 am   BACKBONE|DICT|INTERRES
   105   54   55 1    
   106   54  120 1    
   107   55   56 1    
   108   55   57 1    
   109   55  121 1    
   110   56  122 1    
   111   56  123 1    
   112   56  124 1    
   113   57   58 2    
   114   57   59 am   BACKBONE|DICT|INTERRES
   115   59   60 1    
   116   59  125 1    
   117   60   61 1    
   118   60   62 1    
   119   60  126 1    
   120   61  127 1    
   121   61  128 1    
   122   61  129 1    
   123   62   63 2    
   124   62   64 am   BACKBONE|DICT|INTERRES
   125   64   65 1    
   126   64  130 1    
   127   65   66 1    
   128   65   69 1    
   129   65  131 1    
   130   66   67 am   BACKBONE|DICT|INTERRES
   131   66   68 2    
   132   67  132 1    
   133   67  133 1    
   134   69   70 1    
   135   69  134 1    
   136   69  135 1    
   137   70   71 1    
   138   71  136 1    
   139   71  137 1    
@<TRIPOS>SUBSTRUCTURE
     1 UNK         1 GROUP             0       ****    0 ROOT    
