@<TRIPOS>MOLECULE
3R136
137   139    1
SMALL
USER_CHARGES


@<TRIPOS>ATOM
      1 CA         28.5527   19.6442   -2.2233 C.3       0 UNK        -0.1979 
      2 C          28.7261   21.0765   -1.7426 C.2       0 UNK         0.4864 
      3 O          27.9287   21.9423   -2.1022 O.2       0 UNK        -0.5359 
      4 N          29.7499   21.3316   -0.9158 N.am      1 UNK        -0.4318 
      5 CA         30.1034   22.6463   -0.3571 C.3       1 UNK         0.0824 
      6 C6         31.4105   22.5714    0.4712 C.3       12 UNK        -0.0944 
      7 S7         31.2906   21.4442    1.9106 S.3       12 UNK        -0.2672 
      8 C8         32.2509   22.3125    3.1911 C.3       12 UNK         0.0333 
      9 C9         31.7425   23.7199    3.4794 C.ar      12 UNK        -0.0807 
     10 C10        32.5422   24.8205    3.1663 C.ar      12 UNK        -0.0894 
     11 C11        32.1170   26.1168    3.4611 C.ar      12 UNK        -0.0804 
     12 C12        30.8802   26.3105    4.0845 C.ar      12 UNK        -0.0824 
     13 C13        30.0529   25.2186    4.3876 C.ar      12 UNK        -0.0762 
     14 C14        30.4979   23.9258    4.0831 C.ar      12 UNK        -0.0782 
     15 C15        28.7077   25.3801    5.1006 C.3       12 UNK         0.0230 
     16 S16        27.8745   26.9925    4.8793 S.3       12 UNK        -0.2608 
     17 C17        27.2916   26.9134    3.1495 C.3       12 UNK        -0.0989 
     18 CA         28.0889   27.8527    2.2047 C.3       5 UNK         0.0716 
     19 N          27.9595   27.4473    0.8035 N.am      5 UNK        -0.4135 
     20 C          26.9181   27.6692   -0.0107 C.2       4 UNK         0.5031 
     21 O          25.8898   28.2626    0.3175 O.2       4 UNK        -0.5229 
     22 CA         27.0253   27.0891   -1.4283 C.3       4 UNK         0.0329 
     23 CB         28.4580   27.1175   -1.9994 C.3       4 UNK        -0.2001 
     24 N          26.5365   25.7150   -1.3890 N.am      4 UNK        -0.4303 
     25 C          25.2620   25.3501   -1.5896 C.2       3 UNK         0.5044 
     26 O          24.3848   26.1103   -2.0017 O.2       3 UNK        -0.5152 
     27 CA         24.8903   23.8904   -1.2692 C.3       3 UNK         0.0319 
     28 CB         24.8230   23.0535   -2.5567 C.3       3 UNK        -0.2001 
     29 N          25.8159   23.2645   -0.3191 N.am      3 UNK        -0.4354 
     30 C          25.8408   23.5421    0.9954 C.2       2 UNK         0.4964 
     31 O          25.0391   24.2970    1.5457 O.2       2 UNK        -0.5047 
     32 CA         26.9431   22.8890    1.8503 C.3       2 UNK         0.0288 
     33 CB         26.3920   21.6640    2.5970 C.3       2 UNK        -0.2113 
     34 N          28.1317   22.4917    1.0971 N.am      2 UNK        -0.4145 
     35 C          28.9582   23.3164    0.4364 C.2       1 UNK         0.5006 
     36 O          28.8169   24.5399    0.3922 O.2       1 UNK        -0.5103 
     37 C          27.8415   29.3707    2.3975 C.2       5 UNK         0.5055 
     38 O          28.4717   30.1694    1.7031 O.2       5 UNK        -0.5220 
     39 N          26.9594   29.7357    3.3407 N.am      6 UNK        -0.4450 
     40 CA         26.5394   31.0896    3.7364 C.3       6 UNK         0.0367 
     41 CB         25.9805   31.8845    2.5375 C.3       6 UNK        -0.1929 
     42 C          27.5982   31.8959    4.5158 C.2       6 UNK         0.5070 
     43 O          27.2925   32.9993    4.9700 O.2       6 UNK        -0.5237 
     44 N          28.7964   31.3357    4.7015 N.am      7 UNK        -0.4739 
     45 CA         29.8986   31.8788    5.4851 C.3       7 UNK         0.0276 
     46 CB         30.6164   32.9933    4.7013 C.3       7 UNK        -0.1927 
     47 C          30.8619   30.7295    5.7906 C.2       7 UNK         0.5013 
     48 O          30.9656   29.7975    4.9889 O.2       7 UNK        -0.5193 
     49 N          31.5671   30.8244    6.9234 N.am      8 UNK        -0.4253 
     50 CA         32.6583   29.9175    7.2775 C.3       8 UNK         0.0242 
     51 CB         32.9265   29.9990    8.7890 C.3       8 UNK        -0.2000 
     52 C          33.9103   30.3037    6.4789 C.2       8 UNK         0.4948 
     53 O          34.2730   31.4831    6.4698 O.2       8 UNK        -0.5275 
     54 N          34.5281   29.3193    5.8117 N.am      9 UNK        -0.4246 
     55 CA         35.6979   29.4082    4.9213 C.3       9 UNK         0.0261 
     56 CB         36.9531   29.8786    5.6821 C.3       9 UNK        -0.1959 
     57 C          35.4780   30.2465    3.6458 C.2       9 UNK         0.5033 
     58 O          35.7762   29.7688    2.5518 O.2       9 UNK        -0.5390 
     59 N          34.9377   31.4611    3.7897 N.am      10 UNK        -0.4215 
     60 CA         34.6619   32.4343    2.7282 C.3       10 UNK         0.0240 
     61 CB         34.6401   33.8425    3.3527 C.3       10 UNK        -0.1982 
     62 C          33.3780   32.1306    1.9246 C.2       10 UNK         0.4970 
     63 O          32.6770   33.0600    1.5215 O.2       10 UNK        -0.4916 
     64 N          33.0876   30.8450    1.7014 N.am      11 UNK        -0.4279 
     65 CA         31.9480   30.3506    0.9139 C.3       11 UNK         0.1003 
     66 C          32.1227   30.4614   -0.6299 C.2       11 UNK         0.5709 
     67 N          33.2985   30.8010   -1.1463 N.am      11 UNK        -0.7358 
     68 O          31.1688   30.2491   -1.3745 O.2       11 UNK        -0.4999 
     69 C69        31.5307   28.9231    1.3550 C.3       12 UNK        -0.0954 
     70 S70        32.9028   27.7192    1.3513 S.3       12 UNK        -0.2268 
     71 C71        33.0182   27.2925    3.1163 C.3       12 UNK         0.0203 
     72 H72        27.5776   19.2631   -1.9213 H         1 UNK         0.0888 
     73 H73        28.6120   19.6053   -3.3106 H         1 UNK         0.0888 
     74 H74        29.3173   18.9820   -1.8175 H         1 UNK         0.0888 
     75 H75        30.3590   20.5741   -0.6391 H         1 UNK         0.3017 
     76 H76        30.2962   23.2983   -1.2117 H         1 UNK         0.0873 
     77 H77        32.2283   22.2225   -0.1613 H         1 UNK         0.0745 
     78 H78        31.7013   23.5727    0.7904 H         1 UNK         0.0745 
     79 H79        33.2982   22.3335    2.8854 H         1 UNK         0.0705 
     80 H80        32.2162   21.7275    4.1111 H         1 UNK         0.0705 
     81 H81        33.5039   24.6713    2.6943 H         1 UNK         0.1334 
     82 H82        30.5709   27.3145    4.3369 H         1 UNK         0.1417 
     83 H83        29.8819   23.0710    4.3282 H         1 UNK         0.1562 
     84 H84        28.8777   25.2354    6.1682 H         1 UNK         0.0748 
     85 H85        28.0204   24.5902    4.7940 H         1 UNK         0.0748 
     86 H86        26.2193   27.1137    3.1045 H         1 UNK         0.0940 
     87 H87        27.4016   25.8862    2.8038 H         1 UNK         0.0940 
     88 H88        29.1433   27.7030    2.4273 H         1 UNK         0.0703 
     89 H89        28.7218   26.8882    0.4445 H         1 UNK         0.3081 
     90 H90        26.3958   27.6962   -2.0826 H         1 UNK         0.0719 
     91 H91        29.1359   26.4443   -1.4747 H         1 UNK         0.0809 
     92 H92        28.4610   26.8260   -3.0498 H         1 UNK         0.0809 
     93 H93        28.8818   28.1218   -1.9444 H         1 UNK         0.0809 
     94 H94        27.1731   25.0297   -1.0011 H         1 UNK         0.2990 
     95 H95        23.8944   23.8958   -0.8208 H         1 UNK         0.0690 
     96 H96        24.5692   22.0147   -2.3453 H         1 UNK         0.0788 
     97 H97        25.7696   23.0661   -3.0977 H         1 UNK         0.0788 
     98 H98        24.0604   23.4431   -3.2323 H         1 UNK         0.0788 
     99 H99        26.5252   22.6567   -0.7161 H         1 UNK         0.2993 
    100 H100       27.2593   23.6228    2.5920 H         1 UNK         0.0949 
    101 H101       26.0819   20.8773    1.9079 H         1 UNK         0.0767 
    102 H102       27.1356   21.2448    3.2752 H         1 UNK         0.0767 
    103 H103       25.5223   21.9322    3.1989 H         1 UNK         0.0767 
    104 H104       28.3418   21.5046    1.0701 H         1 UNK         0.3013 
    105 H105       26.5511   28.9893    3.8882 H         1 UNK         0.3121 
    106 H106       25.7148   30.9410    4.4351 H         1 UNK         0.0774 
    107 H107       25.5138   32.8127    2.8696 H         1 UNK         0.0815 
    108 H108       26.7625   32.1553    1.8279 H         1 UNK         0.0815 
    109 H109       25.2221   31.3142    2.0010 H         1 UNK         0.0815 
    110 H110       28.9843   30.4219    4.3080 H         1 UNK         0.2987 
    111 H111       29.5079   32.2761    6.4245 H         1 UNK         0.0949 
    112 H112       31.4837   33.3651    5.2485 H         1 UNK         0.0806 
    113 H113       30.9684   32.6350    3.7335 H         1 UNK         0.0806 
    114 H114       29.9587   33.8437    4.5219 H         1 UNK         0.0806 
    115 H115       31.4575   31.6435    7.5038 H         1 UNK         0.3010 
    116 H116       32.3657   28.8938    7.0321 H         1 UNK         0.0829 
    117 H117       32.0425   29.7231    9.3642 H         1 UNK         0.0813 
    118 H118       33.7274   29.3176    9.0793 H         1 UNK         0.0813 
    119 H119       33.2264   31.0024    9.0946 H         1 UNK         0.0813 
    120 H120       34.1295   28.3936    5.8877 H         1 UNK         0.3038 
    121 H121       35.8892   28.3867    4.5885 H         1 UNK         0.0769 
    122 H122       37.8312   29.8532    5.0354 H         1 UNK         0.0811 
    123 H123       37.1623   29.2350    6.5365 H         1 UNK         0.0811 
    124 H124       36.8533   30.9003    6.0499 H         1 UNK         0.0811 
    125 H125       34.6831   31.7300    4.7402 H         1 UNK         0.3204 
    126 H126       35.4883   32.4016    2.0154 H         1 UNK         0.0748 
    127 H127       34.5271   34.6131    2.5888 H         1 UNK         0.0771 
    128 H128       33.8155   33.9555    4.0578 H         1 UNK         0.0771 
    129 H129       35.5674   34.0546    3.8853 H         1 UNK         0.0771 
    130 H130       33.7516   30.1436    2.0056 H         1 UNK         0.2980 
    131 H131       31.1006   30.9995    1.1435 H         1 UNK         0.0545 
    132 H132       34.0913   30.9665   -0.5482 H         1 UNK         0.3459 
    133 H133       33.3946   30.8742   -2.1467 H         1 UNK         0.3459 
    134 H134       30.7313   28.5378    0.7205 H         1 UNK         0.0616 
    135 H135       31.1059   28.9791    2.3572 H         1 UNK         0.0616 
    136 H136       32.7855   28.1617    3.7325 H         1 UNK         0.0634 
    137 H137       34.0533   27.0314    3.3404 H         1 UNK         0.0634 
@<TRIPOS>BOND
     1    1    2 1    
     2    1   72 1    
     3    1   73 1    
     4    1   74 1    
     5    2    3 2    
     6    2    4 am   BACKBONE|DICT|INTERRES
     7    4    5 1    
     8    4   75 1    
     9    5    6 1    
    10    5   35 1    
    11    5   76 1    
    12    6    7 1    
    13    6   77 1    
    14    6   78 1    
    15    7    8 1    
    16    8    9 1    
    17    8   79 1    
    18    8   80 1    
    19    9   10 ar   
    20    9   14 ar   
    21   10   11 ar   
    22   10   81 1    
    23   11   12 ar   
    24   11   71 1    
    25   12   13 ar   
    26   12   82 1    
    27   13   14 ar   
    28   13   15 1    
    29   14   83 1    
    30   15   16 1    
    31   15   84 1    
    32   15   85 1    
    33   16   17 1    
    34   17   18 1    
    35   17   86 1    
    36   17   87 1    
    37   18   19 1    
    38   18   37 1    
    39   18   88 1    
    40   19   20 am   BACKBONE|DICT|INTERRES
    41   19   89 1    
    42   20   21 2    
    43   20   22 1    
    44   22   23 1    
    45   22   24 1    
    46   22   90 1    
    47   23   91 1    
    48   23   92 1    
    49   23   93 1    
    50   24   25 am   BACKBONE|DICT|INTERRES
    51   24   94 1    
    52   25   26 2    
    53   25   27 1    
    54   27   28 1    
    55   27   29 1    
    56   27   95 1    
    57   28   96 1    
    58   28   97 1    
    59   28   98 1    
    60   29   30 am   BACKBONE|DICT|INTERRES
    61   29   99 1    
    62   30   31 2    
    63   30   32 1    
    64   32   33 1    
    65   32   34 1    
    66   32  100 1    
    67   33  101 1    
    68   33  102 1    
    69   33  103 1    
    70   34   35 am   BACKBONE|DICT|INTERRES
    71   34  104 1    
    72   35   36 2    
    73   37   38 2    
    74   37   39 am   BACKBONE|DICT|INTERRES
    75   39   40 1    
    76   39  105 1    
    77   40   41 1    
    78   40   42 1    
    79   40  106 1    
    80   41  107 1    
    81   41  108 1    
    82   41  109 1    
    83   42   43 2    
    84   42   44 am   BACKBONE|DICT|INTERRES
    85   44   45 1    
    86   44  110 1    
    87   45   46 1    
    88   45   47 1    
    89   45  111 1    
    90   46  112 1    
    91   46  113 1    
    92   46  114 1    
    93   47   48 2    
    94   47   49 am   BACKBONE|DICT|INTERRES
    95   49   50 1    
    96   49  115 1    
    97   50   51 1    
    98   50   52 1    
    99   50  116 1    
   100   51  117 1    
   101   51  118 1    
   102   51  119 1    
   103   52   53 2    
   104   52   54 am   BACKBONE|DICT|INTERRES
   105   54   55 1    
   106   54  120 1    
   107   55   56 1    
   108   55   57 1    
   109   55  121 1    
   110   56  122 1    
   111   56  123 1    
   112   56  124 1    
   113   57   58 2    
   114   57   59 am   BACKBONE|DICT|INTERRES
   115   59   60 1    
   116   59  125 1    
   117   60   61 1    
   118   60   62 1    
   119   60  126 1    
   120   61  127 1    
   121   61  128 1    
   122   61  129 1    
   123   62   63 2    
   124   62   64 am   BACKBONE|DICT|INTERRES
   125   64   65 1    
   126   64  130 1    
   127   65   66 1    
   128   65   69 1    
   129   65  131 1    
   130   66   67 am   BACKBONE|DICT|INTERRES
   131   66   68 2    
   132   67  132 1    
   133   67  133 1    
   134   69   70 1    
   135   69  134 1    
   136   69  135 1    
   137   70   71 1    
   138   71  136 1    
   139   71  137 1    
@<TRIPOS>SUBSTRUCTURE
     1 UNK         1 GROUP             0       ****    0 ROOT    
