@<TRIPOS>MOLECULE
3R136
137   139    1
SMALL
USER_CHARGES


@<TRIPOS>ATOM
      1 CA         30.4356   23.6774   -3.6746 C.3       0 UNK        -0.1979 
      2 C          30.2643   23.9382   -2.1859 C.2       0 UNK         0.4864 
      3 O          30.0937   25.0911   -1.7925 O.2       0 UNK        -0.5359 
      4 N          30.3001   22.8735   -1.3702 N.am      1 UNK        -0.4318 
      5 CA         30.1725   22.8646    0.0950 C.3       1 UNK         0.0824 
      6 C6         30.1074   21.4089    0.6364 C.3       12 UNK        -0.0944 
      7 S7         31.7488   20.7888    1.1168 S.3       12 UNK        -0.2672 
      8 C8         31.5141   20.5349    2.9062 C.3       12 UNK         0.0333 
      9 C9         31.3675   21.8475    3.6659 C.ar      12 UNK        -0.0807 
     10 C10        32.5067   22.5788    4.0082 C.ar      12 UNK        -0.0894 
     11 C11        32.4006   23.7568    4.7516 C.ar      12 UNK        -0.0804 
     12 C12        31.1365   24.2044    5.1547 C.ar      12 UNK        -0.0824 
     13 C13        29.9822   23.4889    4.8102 C.ar      12 UNK        -0.0762 
     14 C14        30.1081   22.3108    4.0650 C.ar      12 UNK        -0.0782 
     15 C15        28.6051   23.9336    5.3019 C.3       12 UNK         0.0230 
     16 S16        27.7682   25.1060    4.1778 S.3       12 UNK        -0.2608 
     17 C17        28.4311   26.6894    4.7825 C.3       12 UNK        -0.0989 
     18 CA         28.3909   27.8804    3.7927 C.3       5 UNK         0.0716 
     19 N          28.9230   27.5919    2.4547 N.am      5 UNK        -0.4135 
     20 C          29.5198   28.5320    1.7059 C.2       4 UNK         0.5031 
     21 O          29.6911   29.6925    2.0830 O.2       4 UNK        -0.5229 
     22 CA         30.0082   28.1394    0.3060 C.3       4 UNK         0.0329 
     23 CB         31.3179   27.3395    0.3894 C.3       4 UNK        -0.2001 
     24 N          29.0065   27.4087   -0.4698 N.am      4 UNK        -0.4303 
     25 C          27.8086   27.9022   -0.8175 C.2       3 UNK         0.5044 
     26 O          27.4148   29.0275   -0.5142 O.2       3 UNK        -0.5152 
     27 CA         26.8692   26.9722   -1.6002 C.3       3 UNK         0.0319 
     28 CB         27.2627   26.9093   -3.0846 C.3       3 UNK        -0.2001 
     29 N          26.8273   25.6235   -1.0366 N.am      3 UNK        -0.4354 
     30 C          26.3620   25.3289    0.1862 C.2       2 UNK         0.4964 
     31 O          25.8787   26.1561    0.9567 O.2       2 UNK        -0.5047 
     32 CA         26.4976   23.8695    0.6432 C.3       2 UNK         0.0288 
     33 CB         25.3195   23.0258    0.1303 C.3       2 UNK        -0.2113 
     34 N          27.7609   23.2522    0.2338 N.am      2 UNK        -0.4145 
     35 C          28.9750   23.6891    0.6024 C.2       1 UNK         0.5006 
     36 O          29.1728   24.6956    1.2845 O.2       1 UNK        -0.5103 
     37 C          27.0509   28.6432    3.7704 C.2       5 UNK         0.5055 
     38 O          26.8016   29.4017    4.7086 O.2       5 UNK        -0.5220 
     39 N          26.2473   28.5170    2.7019 N.am      6 UNK        -0.4450 
     40 CA         25.0704   29.3665    2.4725 C.3       6 UNK         0.0367 
     41 CB         24.2078   28.7966    1.3358 C.3       6 UNK        -0.1929 
     42 C          25.4487   30.8296    2.1787 C.2       6 UNK         0.5070 
     43 O          24.8028   31.7388    2.6999 O.2       6 UNK        -0.5237 
     44 N          26.5006   31.0328    1.3728 N.am      7 UNK        -0.4739 
     45 CA         27.0582   32.3482    1.0390 C.3       7 UNK         0.0276 
     46 CB         27.9116   32.2144   -0.2336 C.3       7 UNK        -0.1927 
     47 C          27.8977   32.9733    2.1692 C.2       7 UNK         0.5013 
     48 O          28.2200   34.1588    2.0826 O.2       7 UNK        -0.5193 
     49 N          28.2630   32.1662    3.1769 N.am      8 UNK        -0.4253 
     50 CA         29.1817   32.4679    4.2830 C.3       8 UNK         0.0242 
     51 CB         28.6306   33.5933    5.1844 C.3       8 UNK        -0.2000 
     52 C          30.6294   32.7219    3.8105 C.2       8 UNK         0.4948 
     53 O          31.3698   33.4641    4.4578 O.2       8 UNK        -0.5275 
     54 N          31.0107   32.0777    2.7000 N.am      9 UNK        -0.4246 
     55 CA         32.3642   32.0606    2.1427 C.3       9 UNK         0.0261 
     56 CB         32.2621   31.9544    0.6119 C.3       9 UNK        -0.1959 
     57 C          33.2023   30.8972    2.7041 C.2       9 UNK         0.5033 
     58 O          34.4278   30.9256    2.5820 O.2       9 UNK        -0.5390 
     59 N          32.5311   29.8939    3.2870 N.am      10 UNK        -0.4215 
     60 CA         33.1100   28.7096    3.9208 C.3       10 UNK         0.0240 
     61 CB         31.9613   27.8476    4.4664 C.3       10 UNK        -0.1982 
     62 C          34.0758   29.0567    5.0736 C.2       10 UNK         0.4970 
     63 O          33.6862   29.8475    5.9336 O.2       10 UNK        -0.4916 
     64 N          35.2776   28.4744    5.1682 N.am      11 UNK        -0.4279 
     65 CA         36.0242   27.6624    4.1959 C.3       11 UNK         0.1003 
     66 C          37.5206   28.0706    4.2616 C.2       11 UNK         0.5709 
     67 N          38.2690   27.8601    3.1873 N.am      11 UNK        -0.7358 
     68 O          38.0172   28.5494    5.2815 O.2       11 UNK        -0.4999 
     69 C69        35.8661   26.1325    4.4394 C.3       12 UNK        -0.0954 
     70 S70        34.3455   25.4300    3.7228 S.3       12 UNK        -0.2268 
     71 C71        33.6633   24.5145    5.1395 C.3       12 UNK         0.0203 
     72 H72        29.5606   24.0310   -4.2193 H         1 UNK         0.0888 
     73 H73        31.3083   24.2117   -4.0489 H         1 UNK         0.0888 
     74 H74        30.5666   22.6177   -3.8927 H         1 UNK         0.0888 
     75 H75        30.4607   21.9659   -1.7829 H         1 UNK         0.3017 
     76 H76        31.0611   23.3599    0.4933 H         1 UNK         0.0873 
     77 H77        29.6867   20.7292   -0.1068 H         1 UNK         0.0745 
     78 H78        29.4426   21.3169    1.4964 H         1 UNK         0.0745 
     79 H79        32.3734   19.9866    3.2953 H         1 UNK         0.0705 
     80 H80        30.6485   19.8920    3.0741 H         1 UNK         0.0705 
     81 H81        33.4823   22.2249    3.7033 H         1 UNK         0.1334 
     82 H82        31.0557   25.0971    5.7571 H         1 UNK         0.1417 
     83 H83        29.2224   21.7421    3.8174 H         1 UNK         0.1562 
     84 H84        28.6857   24.3723    6.2976 H         1 UNK         0.0748 
     85 H85        27.9620   23.0601    5.4188 H         1 UNK         0.0748 
     86 H86        29.4688   26.5245    5.0640 H         1 UNK         0.0940 
     87 H87        27.9229   26.9444    5.7148 H         1 UNK         0.0940 
     88 H88        29.0724   28.6071    4.2395 H         1 UNK         0.0703 
     89 H89        28.8337   26.6410    2.1069 H         1 UNK         0.3081 
     90 H90        30.2173   29.0643   -0.2352 H         1 UNK         0.0719 
     91 H91        31.7142   27.1260   -0.6033 H         1 UNK         0.0809 
     92 H92        32.0830   27.8973    0.9309 H         1 UNK         0.0809 
     93 H93        31.1827   26.3880    0.9044 H         1 UNK         0.0809 
     94 H94        29.2669   26.4763   -0.7856 H         1 UNK         0.2990 
     95 H95        25.8620   27.3893   -1.5359 H         1 UNK         0.0690 
     96 H96        27.2721   27.9070   -3.5256 H         1 UNK         0.0788 
     97 H97        26.5555   26.3095   -3.6576 H         1 UNK         0.0788 
     98 H98        28.2564   26.4829   -3.2254 H         1 UNK         0.0788 
     99 H99        27.2468   24.8859   -1.5828 H         1 UNK         0.2993 
    100 H100       26.4698   23.8675    1.7347 H         1 UNK         0.0949 
    101 H101       25.3109   22.9599   -0.9584 H         1 UNK         0.0767 
    102 H102       25.3545   22.0118    0.5292 H         1 UNK         0.0767 
    103 H103       24.3672   23.4602    0.4385 H         1 UNK         0.0767 
    104 H104       27.6989   22.4286   -0.3466 H         1 UNK         0.3013 
    105 H105       26.4574   27.8229    1.9912 H         1 UNK         0.3121 
    106 H106       24.4677   29.3592    3.3834 H         1 UNK         0.0774 
    107 H107       24.7656   28.7246    0.4018 H         1 UNK         0.0815 
    108 H108       23.3387   29.4289    1.1495 H         1 UNK         0.0815 
    109 H109       23.8352   27.8025    1.5827 H         1 UNK         0.0815 
    110 H110       26.9318   30.2317    0.9166 H         1 UNK         0.2987 
    111 H111       26.2330   33.0325    0.8302 H         1 UNK         0.0949 
    112 H112       28.7519   31.5348   -0.0838 H         1 UNK         0.0806 
    113 H113       27.3215   31.8361   -1.0686 H         1 UNK         0.0806 
    114 H114       28.3210   33.1787   -0.5374 H         1 UNK         0.0806 
    115 H115       27.9518   31.2059    3.1189 H         1 UNK         0.3010 
    116 H116       29.2229   31.5599    4.8867 H         1 UNK         0.0829 
    117 H117       27.6087   33.3833    5.5002 H         1 UNK         0.0813 
    118 H118       29.2325   33.6995    6.0876 H         1 UNK         0.0813 
    119 H119       28.6351   34.5590    4.6784 H         1 UNK         0.0813 
    120 H120       30.3451   31.4345    2.2767 H         1 UNK         0.3038 
    121 H121       32.8751   32.9929    2.3924 H         1 UNK         0.0769 
    122 H122       31.7698   31.0314    0.3030 H         1 UNK         0.0811 
    123 H123       33.2515   31.9669    0.1526 H         1 UNK         0.0811 
    124 H124       31.7000   32.7898    0.1938 H         1 UNK         0.0811 
    125 H125       31.5226   29.9599    3.2970 H         1 UNK         0.3204 
    126 H126       33.6124   28.1502    3.1364 H         1 UNK         0.0748 
    127 H127       32.3330   27.0655    5.1251 H         1 UNK         0.0771 
    128 H128       31.2581   28.4384    5.0532 H         1 UNK         0.0771 
    129 H129       31.4217   27.3525    3.6607 H         1 UNK         0.0771 
    130 H130       35.8610   28.7476    5.9477 H         1 UNK         0.2980 
    131 H131       35.7079   27.9117    3.1833 H         1 UNK         0.0545 
    132 H132       39.2454   28.1093    3.2154 H         1 UNK         0.3459 
    133 H133       37.8792   27.4575    2.3491 H         1 UNK         0.3459 
    134 H134       36.6881   25.5771    3.9833 H         1 UNK         0.0616 
    135 H135       35.9179   25.9102    5.5067 H         1 UNK         0.0616 
    136 H136       33.4672   25.2027    5.9626 H         1 UNK         0.0634 
    137 H137       34.4116   23.8080    5.5020 H         1 UNK         0.0634 
@<TRIPOS>BOND
     1    1    2 1    
     2    1   72 1    
     3    1   73 1    
     4    1   74 1    
     5    2    3 2    
     6    2    4 am   BACKBONE|DICT|INTERRES
     7    4    5 1    
     8    4   75 1    
     9    5    6 1    
    10    5   35 1    
    11    5   76 1    
    12    6    7 1    
    13    6   77 1    
    14    6   78 1    
    15    7    8 1    
    16    8    9 1    
    17    8   79 1    
    18    8   80 1    
    19    9   10 ar   
    20    9   14 ar   
    21   10   11 ar   
    22   10   81 1    
    23   11   12 ar   
    24   11   71 1    
    25   12   13 ar   
    26   12   82 1    
    27   13   14 ar   
    28   13   15 1    
    29   14   83 1    
    30   15   16 1    
    31   15   84 1    
    32   15   85 1    
    33   16   17 1    
    34   17   18 1    
    35   17   86 1    
    36   17   87 1    
    37   18   19 1    
    38   18   37 1    
    39   18   88 1    
    40   19   20 am   BACKBONE|DICT|INTERRES
    41   19   89 1    
    42   20   21 2    
    43   20   22 1    
    44   22   23 1    
    45   22   24 1    
    46   22   90 1    
    47   23   91 1    
    48   23   92 1    
    49   23   93 1    
    50   24   25 am   BACKBONE|DICT|INTERRES
    51   24   94 1    
    52   25   26 2    
    53   25   27 1    
    54   27   28 1    
    55   27   29 1    
    56   27   95 1    
    57   28   96 1    
    58   28   97 1    
    59   28   98 1    
    60   29   30 am   BACKBONE|DICT|INTERRES
    61   29   99 1    
    62   30   31 2    
    63   30   32 1    
    64   32   33 1    
    65   32   34 1    
    66   32  100 1    
    67   33  101 1    
    68   33  102 1    
    69   33  103 1    
    70   34   35 am   BACKBONE|DICT|INTERRES
    71   34  104 1    
    72   35   36 2    
    73   37   38 2    
    74   37   39 am   BACKBONE|DICT|INTERRES
    75   39   40 1    
    76   39  105 1    
    77   40   41 1    
    78   40   42 1    
    79   40  106 1    
    80   41  107 1    
    81   41  108 1    
    82   41  109 1    
    83   42   43 2    
    84   42   44 am   BACKBONE|DICT|INTERRES
    85   44   45 1    
    86   44  110 1    
    87   45   46 1    
    88   45   47 1    
    89   45  111 1    
    90   46  112 1    
    91   46  113 1    
    92   46  114 1    
    93   47   48 2    
    94   47   49 am   BACKBONE|DICT|INTERRES
    95   49   50 1    
    96   49  115 1    
    97   50   51 1    
    98   50   52 1    
    99   50  116 1    
   100   51  117 1    
   101   51  118 1    
   102   51  119 1    
   103   52   53 2    
   104   52   54 am   BACKBONE|DICT|INTERRES
   105   54   55 1    
   106   54  120 1    
   107   55   56 1    
   108   55   57 1    
   109   55  121 1    
   110   56  122 1    
   111   56  123 1    
   112   56  124 1    
   113   57   58 2    
   114   57   59 am   BACKBONE|DICT|INTERRES
   115   59   60 1    
   116   59  125 1    
   117   60   61 1    
   118   60   62 1    
   119   60  126 1    
   120   61  127 1    
   121   61  128 1    
   122   61  129 1    
   123   62   63 2    
   124   62   64 am   BACKBONE|DICT|INTERRES
   125   64   65 1    
   126   64  130 1    
   127   65   66 1    
   128   65   69 1    
   129   65  131 1    
   130   66   67 am   BACKBONE|DICT|INTERRES
   131   66   68 2    
   132   67  132 1    
   133   67  133 1    
   134   69   70 1    
   135   69  134 1    
   136   69  135 1    
   137   70   71 1    
   138   71  136 1    
   139   71  137 1    
@<TRIPOS>SUBSTRUCTURE
     1 UNK         1 GROUP             0       ****    0 ROOT    
