@<TRIPOS>MOLECULE
3R136
137   139    1
SMALL
USER_CHARGES


@<TRIPOS>ATOM
      1 CA         29.7437   20.6040   -1.6906 C.3       0 UNK        -0.1979 
      2 C          29.3031   21.6209   -0.6487 C.2       0 UNK         0.4864 
      3 O          28.7037   22.6343   -1.0067 O.2       0 UNK        -0.5359 
      4 N          29.5951   21.3542    0.6320 N.am      1 UNK        -0.4318 
      5 CA         29.2566   22.1931    1.7894 C.3       1 UNK         0.0824 
      6 C6         29.7390   21.5501    3.1121 C.3       12 UNK        -0.0944 
      7 S7         31.5550   21.4319    3.1958 S.3       12 UNK        -0.2672 
      8 C8         31.9390   22.7032    4.4417 C.3       12 UNK         0.0333 
      9 C9         31.6384   24.1106    3.9433 C.ar      12 UNK        -0.0807 
     10 C10        32.4862   24.7127    3.0108 C.ar      12 UNK        -0.0894 
     11 C11        32.2553   26.0224    2.5858 C.ar      12 UNK        -0.0804 
     12 C12        31.1736   26.7344    3.1161 C.ar      12 UNK        -0.0824 
     13 C13        30.2829   26.1329    4.0145 C.ar      12 UNK        -0.0762 
     14 C14        30.5338   24.8196    4.4287 C.ar      12 UNK        -0.0782 
     15 C15        29.0617   26.8573    4.5922 C.3       12 UNK         0.0230 
     16 S16        28.6219   28.4669    3.8372 S.3       12 UNK        -0.2608 
     17 C17        27.8636   27.9990    2.2477 C.3       12 UNK        -0.0989 
     18 CA         28.6555   28.5330    1.0199 C.3       5 UNK         0.0716 
     19 N          28.3199   27.8487   -0.2248 N.am      5 UNK        -0.4135 
     20 C          28.5207   26.5569   -0.4957 C.2       4 UNK         0.5031 
     21 O          28.9638   25.7377    0.3128 O.2       4 UNK        -0.5229 
     22 CA         28.1506   26.0931   -1.9098 C.3       4 UNK         0.0329 
     23 CB         29.4040   25.6552   -2.6854 C.3       4 UNK        -0.2001 
     24 N          27.2477   24.9600   -1.7608 N.am      4 UNK        -0.4303 
     25 C          25.9236   25.0044   -1.9495 C.2       3 UNK         0.5044 
     26 O          25.3358   25.9203   -2.5266 O.2       3 UNK        -0.5152 
     27 CA         25.1104   23.8664   -1.3092 C.3       3 UNK         0.0319 
     28 CB         25.2515   22.5564   -2.1012 C.3       3 UNK        -0.2001 
     29 N          25.5131   23.6564    0.0843 N.am      3 UNK        -0.4354 
     30 C          25.3349   24.5433    1.0749 C.2       2 UNK         0.4964 
     31 O          24.6600   25.5663    0.9576 O.2       2 UNK        -0.5047 
     32 CA         26.0542   24.2870    2.4121 C.3       2 UNK         0.0288 
     33 CB         25.1754   23.4748    3.3841 C.3       2 UNK        -0.2113 
     34 N          27.4018   23.7151    2.2676 N.am      2 UNK        -0.4145 
     35 C          27.7452   22.4790    1.8805 C.2       1 UNK         0.5006 
     36 O          26.9354   21.5893    1.6050 O.2       1 UNK        -0.5103 
     37 C          28.4072   30.0288    0.7642 C.2       5 UNK         0.5055 
     38 O          27.3518   30.3726    0.2247 O.2       5 UNK        -0.5220 
     39 N          29.3756   30.8810    1.1177 N.am      6 UNK        -0.4450 
     40 CA         29.3110   32.3373    0.9581 C.3       6 UNK         0.0367 
     41 CB         30.5825   32.8255    0.2430 C.3       6 UNK        -0.1929 
     42 C          29.1584   33.0461    2.3128 C.2       6 UNK         0.5070 
     43 O          28.4637   34.0597    2.3909 O.2       6 UNK        -0.5237 
     44 N          29.7944   32.5001    3.3529 N.am      7 UNK        -0.4739 
     45 CA         29.7448   32.9353    4.7476 C.3       7 UNK         0.0276 
     46 CB         30.6041   34.1991    4.9552 C.3       7 UNK        -0.1927 
     47 C          30.2166   31.7545    5.6087 C.2       7 UNK         0.5013 
     48 O          30.5631   30.7153    5.0468 O.2       7 UNK        -0.5193 
     49 N          30.2164   31.9149    6.9400 N.am      8 UNK        -0.4253 
     50 CA         30.5463   30.8892    7.9428 C.3       8 UNK         0.0242 
     51 CB         30.5781   31.5450    9.3351 C.3       8 UNK        -0.2000 
     52 C          31.8547   30.1201    7.6553 C.2       8 UNK         0.4948 
     53 O          32.9378   30.6131    7.9766 O.2       8 UNK        -0.5275 
     54 N          31.7072   28.9443    7.0240 N.am      9 UNK        -0.4246 
     55 CA         32.7572   28.0513    6.5171 C.3       9 UNK         0.0261 
     56 CB         33.5516   27.4250    7.6830 C.3       9 UNK        -0.1959 
     57 C          33.6673   28.6953    5.4467 C.2       9 UNK         0.5033 
     58 O          34.8399   28.3260    5.3493 O.2       9 UNK        -0.5390 
     59 N          33.1243   29.6342    4.6607 N.am      10 UNK        -0.4215 
     60 CA         33.8163   30.3463    3.5894 C.3       10 UNK         0.0240 
     61 CB         33.9582   31.8250    3.9784 C.3       10 UNK        -0.1982 
     62 C          33.0158   30.2125    2.2910 C.2       10 UNK         0.4970 
     63 O          31.7838   30.2349    2.3233 O.2       10 UNK        -0.4916 
     64 N          33.7382   30.0889    1.1750 N.am      11 UNK        -0.4279 
     65 CA         33.2018   29.8902   -0.1814 C.3       11 UNK         0.1003 
     66 C          33.7335   30.9440   -1.1970 C.2       11 UNK         0.5709 
     67 N          34.4296   31.9915   -0.7689 N.am      11 UNK        -0.7358 
     68 O          33.4902   30.8289   -2.3956 O.2       11 UNK        -0.4999 
     69 C69        33.4329   28.4266   -0.6588 C.3       12 UNK        -0.0954 
     70 S70        32.2625   27.2612    0.1087 S.3       12 UNK        -0.2268 
     71 C71        33.1826   26.6742    1.5683 C.3       12 UNK         0.0203 
     72 H72        28.8765   20.2184   -2.2259 H         1 UNK         0.0888 
     73 H73        30.4094   21.0745   -2.4136 H         1 UNK         0.0888 
     74 H74        30.2695   19.7613   -1.2423 H         1 UNK         0.0888 
     75 H75        30.0875   20.5018    0.8557 H         1 UNK         0.3017 
     76 H76        29.7720   23.1469    1.6504 H         1 UNK         0.0873 
     77 H77        29.3250   20.5457    3.2224 H         1 UNK         0.0745 
     78 H78        29.3805   22.1131    3.9759 H         1 UNK         0.0745 
     79 H79        32.9972   22.6331    4.6976 H         1 UNK         0.0705 
     80 H80        31.3920   22.4888    5.3613 H         1 UNK         0.0705 
     81 H81        33.3309   24.1595    2.6232 H         1 UNK         0.1334 
     82 H82        31.0322   27.7590    2.8112 H         1 UNK         0.1417 
     83 H83        29.8730   24.3519    5.1463 H         1 UNK         0.1562 
     84 H84        29.2481   27.0320    5.6524 H         1 UNK         0.0748 
     85 H85        28.1910   26.2018    4.5425 H         1 UNK         0.0748 
     86 H86        26.8280   28.3440    2.2288 H         1 UNK         0.0940 
     87 H87        27.8054   26.9130    2.2232 H         1 UNK         0.0940 
     88 H88        29.7228   28.3830    1.1763 H         1 UNK         0.0703 
     89 H89        27.9138   28.4540   -0.9268 H         1 UNK         0.3081 
     90 H90        27.6691   26.9078   -2.4548 H         1 UNK         0.0719 
     91 H91        30.0989   26.4875   -2.8042 H         1 UNK         0.0809 
     92 H92        29.9391   24.8563   -2.1697 H         1 UNK         0.0809 
     93 H93        29.1476   25.2964   -3.6822 H         1 UNK         0.0809 
     94 H94        27.6558   24.1514   -1.2924 H         1 UNK         0.2990 
     95 H95        24.0579   24.1576   -1.3173 H         1 UNK         0.0690 
     96 H96        24.6250   21.7703   -1.6795 H         1 UNK         0.0788 
     97 H97        26.2798   22.1940   -2.1115 H         1 UNK         0.0788 
     98 H98        24.9443   22.6947   -3.1386 H         1 UNK         0.0788 
     99 H99        26.0635   22.8290    0.2902 H         1 UNK         0.2993 
    100 H100       26.2050   25.2664    2.8678 H         1 UNK         0.0949 
    101 H101       24.9152   22.4945    2.9843 H         1 UNK         0.0767 
    102 H102       25.6752   23.3264    4.3414 H         1 UNK         0.0767 
    103 H103       24.2390   23.9970    3.5847 H         1 UNK         0.0767 
    104 H104       28.1548   24.3834    2.3717 H         1 UNK         0.3013 
    105 H105       30.2153   30.5179    1.5705 H         1 UNK         0.3121 
    106 H106       28.4525   32.6161    0.3434 H         1 UNK         0.0774 
    107 H107       30.5520   33.9049    0.0891 H         1 UNK         0.0815 
    108 H108       31.4826   32.6049    0.8178 H         1 UNK         0.0815 
    109 H109       30.6884   32.3616   -0.7376 H         1 UNK         0.0815 
    110 H110       30.3057   31.6302    3.2299 H         1 UNK         0.2987 
    111 H111       28.7071   33.1485    5.0124 H         1 UNK         0.0949 
    112 H112       30.2548   35.0228    4.3326 H         1 UNK         0.0806 
    113 H113       30.5607   34.5447    5.9883 H         1 UNK         0.0806 
    114 H114       31.6518   34.0257    4.7138 H         1 UNK         0.0806 
    115 H115       29.9342   32.8117    7.3077 H         1 UNK         0.3010 
    116 H116       29.7264   30.1679    7.9412 H         1 UNK         0.0829 
    117 H117       29.6106   31.9739    9.5966 H         1 UNK         0.0813 
    118 H118       30.8247   30.8132   10.1057 H         1 UNK         0.0813 
    119 H119       31.3242   32.3390    9.3904 H         1 UNK         0.0813 
    120 H120       30.7682   28.6923    6.7480 H         1 UNK         0.3038 
    121 H121       32.2377   27.2392    6.0064 H         1 UNK         0.0769 
    122 H122       34.2319   26.6521    7.3233 H         1 UNK         0.0811 
    123 H123       32.8878   26.9561    8.4092 H         1 UNK         0.0811 
    124 H124       34.1524   28.1688    8.2072 H         1 UNK         0.0811 
    125 H125       32.1379   29.8759    4.7729 H         1 UNK         0.3204 
    126 H126       34.8119   29.9262    3.4326 H         1 UNK         0.0748 
    127 H127       34.5015   32.3843    3.2159 H         1 UNK         0.0771 
    128 H128       32.9837   32.2958    4.0990 H         1 UNK         0.0771 
    129 H129       34.5021   31.9373    4.9167 H         1 UNK         0.0771 
    130 H130       34.7460   30.1023    1.2389 H         1 UNK         0.2980 
    131 H131       32.1254   30.0709   -0.1710 H         1 UNK         0.0545 
    132 H132       34.7574   32.6671   -1.4412 H         1 UNK         0.3459 
    133 H133       34.6054   32.1344    0.2118 H         1 UNK         0.3459 
    134 H134       33.2818   28.3342   -1.7356 H         1 UNK         0.0616 
    135 H135       34.4589   28.1060   -0.4708 H         1 UNK         0.0616 
    136 H136       33.9505   25.9751    1.2341 H         1 UNK         0.0634 
    137 H137       33.7072   27.4953    2.0524 H         1 UNK         0.0634 
@<TRIPOS>BOND
     1    1    2 1    
     2    1   72 1    
     3    1   73 1    
     4    1   74 1    
     5    2    3 2    
     6    2    4 am   BACKBONE|DICT|INTERRES
     7    4    5 1    
     8    4   75 1    
     9    5    6 1    
    10    5   35 1    
    11    5   76 1    
    12    6    7 1    
    13    6   77 1    
    14    6   78 1    
    15    7    8 1    
    16    8    9 1    
    17    8   79 1    
    18    8   80 1    
    19    9   10 ar   
    20    9   14 ar   
    21   10   11 ar   
    22   10   81 1    
    23   11   12 ar   
    24   11   71 1    
    25   12   13 ar   
    26   12   82 1    
    27   13   14 ar   
    28   13   15 1    
    29   14   83 1    
    30   15   16 1    
    31   15   84 1    
    32   15   85 1    
    33   16   17 1    
    34   17   18 1    
    35   17   86 1    
    36   17   87 1    
    37   18   19 1    
    38   18   37 1    
    39   18   88 1    
    40   19   20 am   BACKBONE|DICT|INTERRES
    41   19   89 1    
    42   20   21 2    
    43   20   22 1    
    44   22   23 1    
    45   22   24 1    
    46   22   90 1    
    47   23   91 1    
    48   23   92 1    
    49   23   93 1    
    50   24   25 am   BACKBONE|DICT|INTERRES
    51   24   94 1    
    52   25   26 2    
    53   25   27 1    
    54   27   28 1    
    55   27   29 1    
    56   27   95 1    
    57   28   96 1    
    58   28   97 1    
    59   28   98 1    
    60   29   30 am   BACKBONE|DICT|INTERRES
    61   29   99 1    
    62   30   31 2    
    63   30   32 1    
    64   32   33 1    
    65   32   34 1    
    66   32  100 1    
    67   33  101 1    
    68   33  102 1    
    69   33  103 1    
    70   34   35 am   BACKBONE|DICT|INTERRES
    71   34  104 1    
    72   35   36 2    
    73   37   38 2    
    74   37   39 am   BACKBONE|DICT|INTERRES
    75   39   40 1    
    76   39  105 1    
    77   40   41 1    
    78   40   42 1    
    79   40  106 1    
    80   41  107 1    
    81   41  108 1    
    82   41  109 1    
    83   42   43 2    
    84   42   44 am   BACKBONE|DICT|INTERRES
    85   44   45 1    
    86   44  110 1    
    87   45   46 1    
    88   45   47 1    
    89   45  111 1    
    90   46  112 1    
    91   46  113 1    
    92   46  114 1    
    93   47   48 2    
    94   47   49 am   BACKBONE|DICT|INTERRES
    95   49   50 1    
    96   49  115 1    
    97   50   51 1    
    98   50   52 1    
    99   50  116 1    
   100   51  117 1    
   101   51  118 1    
   102   51  119 1    
   103   52   53 2    
   104   52   54 am   BACKBONE|DICT|INTERRES
   105   54   55 1    
   106   54  120 1    
   107   55   56 1    
   108   55   57 1    
   109   55  121 1    
   110   56  122 1    
   111   56  123 1    
   112   56  124 1    
   113   57   58 2    
   114   57   59 am   BACKBONE|DICT|INTERRES
   115   59   60 1    
   116   59  125 1    
   117   60   61 1    
   118   60   62 1    
   119   60  126 1    
   120   61  127 1    
   121   61  128 1    
   122   61  129 1    
   123   62   63 2    
   124   62   64 am   BACKBONE|DICT|INTERRES
   125   64   65 1    
   126   64  130 1    
   127   65   66 1    
   128   65   69 1    
   129   65  131 1    
   130   66   67 am   BACKBONE|DICT|INTERRES
   131   66   68 2    
   132   67  132 1    
   133   67  133 1    
   134   69   70 1    
   135   69  134 1    
   136   69  135 1    
   137   70   71 1    
   138   71  136 1    
   139   71  137 1    
@<TRIPOS>SUBSTRUCTURE
     1 UNK         1 GROUP             0       ****    0 ROOT    
