@<TRIPOS>MOLECULE
3R136
137   139    1
SMALL
USER_CHARGES


@<TRIPOS>ATOM
      1 CA         34.4081   21.5209   -1.9148 C.3       0 UNK        -0.1979 
      2 C          34.0839   22.7880   -1.1373 C.2       0 UNK         0.4864 
      3 O          34.9218   23.2674   -0.3721 O.2       0 UNK        -0.5359 
      4 N          32.8801   23.3337   -1.3316 N.am      1 UNK        -0.4318 
      5 CA         32.3798   24.5469   -0.6878 C.3       1 UNK         0.0824 
      6 C6         31.9985   24.3469    0.8058 C.3       12 UNK        -0.0944 
      7 S7         30.8460   22.9666    1.1236 S.3       12 UNK        -0.2672 
      8 C8         31.0635   22.7485    2.9176 C.3       12 UNK         0.0333 
      9 C9         30.1984   23.7140    3.7158 C.ar      12 UNK        -0.0807 
     10 C10        30.6341   25.0187    3.9711 C.ar      12 UNK        -0.0894 
     11 C11        29.8441   25.8981    4.7185 C.ar      12 UNK        -0.0804 
     12 C12        28.6207   25.4561    5.2294 C.ar      12 UNK        -0.0824 
     13 C13        28.1692   24.1567    4.9741 C.ar      12 UNK        -0.0762 
     14 C14        28.9617   23.2925    4.2139 C.ar      12 UNK        -0.0782 
     15 C15        26.8315   23.6784    5.5233 C.3       12 UNK         0.0230 
     16 S16        25.4762   23.9171    4.3274 S.3       12 UNK        -0.2608 
     17 C17        25.3300   25.7341    4.3203 C.3       12 UNK        -0.0989 
     18 CA         25.9428   26.3560    3.0315 C.3       5 UNK         0.0716 
     19 N          25.1518   26.0684    1.8276 N.am      5 UNK        -0.4135 
     20 C          23.9182   26.5240    1.5571 C.2       4 UNK         0.5031 
     21 O          23.2684   27.2361    2.3253 O.2       4 UNK        -0.5229 
     22 CA         23.2997   26.1143    0.2028 C.3       4 UNK         0.0329 
     23 CB         22.2684   27.1439   -0.3066 C.3       4 UNK        -0.2001 
     24 N          24.2799   25.8139   -0.8507 N.am      4 UNK        -0.4303 
     25 C          25.2204   26.6349   -1.3385 C.2       3 UNK         0.5044 
     26 O          25.4260   27.7794   -0.9291 O.2       3 UNK        -0.5152 
     27 CA         26.0602   26.0691   -2.4959 C.3       3 UNK         0.0319 
     28 CB         25.3804   26.3665   -3.8425 C.3       3 UNK        -0.2001 
     29 N          27.4241   26.6006   -2.5242 N.am      3 UNK        -0.4354 
     30 C          28.3389   26.4266   -1.5621 C.2       2 UNK         0.4964 
     31 O          28.1326   25.8098   -0.5136 O.2       2 UNK        -0.5047 
     32 CA         29.7101   27.0738   -1.8205 C.3       2 UNK         0.0288 
     33 CB         29.7341   28.5257   -1.3159 C.3       2 UNK        -0.2113 
     34 N          30.7930   26.3384   -1.1719 N.am      2 UNK        -0.4145 
     35 C          31.2336   25.1273   -1.5353 C.2       1 UNK         0.5006 
     36 O          30.7952   24.4942   -2.5019 O.2       1 UNK        -0.5103 
     37 C          26.2671   27.8616    3.1786 C.2       5 UNK         0.5055 
     38 O          26.2986   28.3770    4.2986 O.2       5 UNK        -0.5220 
     39 N          26.5026   28.5500    2.0506 N.am      6 UNK        -0.4450 
     40 CA         26.8939   29.9597    2.0182 C.3       6 UNK         0.0367 
     41 CB         26.8487   30.4731    0.5715 C.3       6 UNK        -0.1929 
     42 C          28.2848   30.1830    2.6368 C.2       6 UNK         0.5070 
     43 O          29.2020   29.3926    2.4027 O.2       6 UNK        -0.5237 
     44 N          28.4214   31.2815    3.3903 N.am      7 UNK        -0.4739 
     45 CA         29.6246   31.6465    4.1482 C.3       7 UNK         0.0276 
     46 CB         29.2813   32.8000    5.1047 C.3       7 UNK        -0.1927 
     47 C          30.8496   32.0089    3.2887 C.2       7 UNK         0.5013 
     48 O          31.9535   32.0782    3.8289 O.2       7 UNK        -0.5193 
     49 N          30.6524   32.2063    1.9766 N.am      8 UNK        -0.4253 
     50 CA         31.6778   32.5340    0.9777 C.3       8 UNK         0.0242 
     51 CB         31.0068   32.6641   -0.3993 C.3       8 UNK        -0.2000 
     52 C          32.8548   31.5416    0.9039 C.2       8 UNK         0.4948 
     53 O          33.9467   31.9378    0.4958 O.2       8 UNK        -0.5275 
     54 N          32.6269   30.2872    1.3191 N.am      9 UNK        -0.4246 
     55 CA         33.6573   29.2538    1.4491 C.3       9 UNK         0.0261 
     56 CB         32.9794   27.8759    1.4608 C.3       9 UNK        -0.1959 
     57 C          34.5701   29.4237    2.6814 C.2       9 UNK         0.5033 
     58 O          35.5805   28.7238    2.7587 O.2       9 UNK        -0.5390 
     59 N          34.2110   30.3210    3.6156 N.am      10 UNK        -0.4215 
     60 CA         34.9164   30.6361    4.8651 C.3       10 UNK         0.0240 
     61 CB         36.2692   31.3216    4.5743 C.3       10 UNK        -0.1982 
     62 C          35.0385   29.4252    5.8117 C.2       10 UNK         0.4970 
     63 O          36.1076   29.1870    6.3780 O.2       10 UNK        -0.4916 
     64 N          33.9370   28.6774    5.9557 N.am      11 UNK        -0.4279 
     65 CA         33.8131   27.5286    6.8634 C.3       11 UNK         0.1003 
     66 C          33.8844   27.9096    8.3710 C.2       11 UNK         0.5709 
     67 N          34.2169   26.9574    9.2325 N.am      11 UNK        -0.7358 
     68 O          33.6214   29.0435    8.7698 O.2       11 UNK        -0.4999 
     69 C69        32.5650   26.6695    6.5263 C.3       12 UNK        -0.0954 
     70 S70        30.9767   27.5705    6.6274 S.3       12 UNK        -0.2268 
     71 C71        30.2925   27.3336    4.9583 C.3       12 UNK         0.0203 
     72 H72        33.5875   21.2233   -2.5684 H         1 UNK         0.0888 
     73 H73        35.2943   21.6744   -2.5308 H         1 UNK         0.0888 
     74 H74        34.6083   20.6999   -1.2259 H         1 UNK         0.0888 
     75 H75        32.2312   22.9397   -2.0020 H         1 UNK         0.3017 
     76 H76        33.1811   25.2879   -0.7326 H         1 UNK         0.0873 
     77 H77        31.5664   25.2567    1.2224 H         1 UNK         0.0745 
     78 H78        32.9100   24.1692    1.3780 H         1 UNK         0.0745 
     79 H79        30.8049   21.7197    3.1730 H         1 UNK         0.0705 
     80 H80        32.1133   22.8673    3.1893 H         1 UNK         0.0705 
     81 H81        31.5871   25.3502    3.5843 H         1 UNK         0.1334 
     82 H82        28.0191   26.1338    5.8191 H         1 UNK         0.1417 
     83 H83        28.6156   22.2875    4.0132 H         1 UNK         0.1562 
     84 H84        26.5950   24.1906    6.4573 H         1 UNK         0.0748 
     85 H85        26.8951   22.6179    5.7717 H         1 UNK         0.0748 
     86 H86        25.8040   26.1172    5.2237 H         1 UNK         0.0940 
     87 H87        24.2777   26.0018    4.4218 H         1 UNK         0.0940 
     88 H88        26.9138   25.8868    2.8642 H         1 UNK         0.0703 
     89 H89        25.6093   25.4960    1.1323 H         1 UNK         0.3081 
     90 H90        22.7655   25.1826    0.3931 H         1 UNK         0.0719 
     91 H91        22.7193   28.1251   -0.4570 H         1 UNK         0.0809 
     92 H92        21.8265   26.8297   -1.2521 H         1 UNK         0.0809 
     93 H93        21.4508   27.2676    0.4042 H         1 UNK         0.0809 
     94 H94        24.2058   24.8901   -1.2545 H         1 UNK         0.2990 
     95 H95        26.1342   24.9864   -2.3742 H         1 UNK         0.0690 
     96 H96        25.9317   25.9254   -4.6731 H         1 UNK         0.0788 
     97 H97        25.2990   27.4392   -4.0237 H         1 UNK         0.0788 
     98 H98        24.3705   25.9549   -3.8725 H         1 UNK         0.0788 
     99 H99        27.6672   27.1601   -3.3280 H         1 UNK         0.2993 
    100 H100       29.9002   27.0721   -2.8960 H         1 UNK         0.0949 
    101 H101       30.6947   29.0014   -1.5136 H         1 UNK         0.0767 
    102 H102       28.9709   29.1244   -1.8142 H         1 UNK         0.0767 
    103 H103       29.5486   28.5799   -0.2424 H         1 UNK         0.0767 
    104 H104       31.1698   26.7606   -0.3388 H         1 UNK         0.3013 
    105 H105       26.4406   28.0741    1.1592 H         1 UNK         0.3121 
    106 H106       26.1585   30.5187    2.6008 H         1 UNK         0.0774 
    107 H107       27.1440   31.5213    0.5137 H         1 UNK         0.0815 
    108 H108       27.5155   29.9075   -0.0770 H         1 UNK         0.0815 
    109 H109       25.8430   30.3970    0.1573 H         1 UNK         0.0815 
    110 H110       27.6198   31.8848    3.5118 H         1 UNK         0.2987 
    111 H111       29.9105   30.7799    4.7490 H         1 UNK         0.0949 
    112 H112       28.9687   33.6941    4.5637 H         1 UNK         0.0806 
    113 H113       28.4804   32.5230    5.7905 H         1 UNK         0.0806 
    114 H114       30.1437   33.0737    5.7146 H         1 UNK         0.0806 
    115 H115       29.7064   32.1157    1.6373 H         1 UNK         0.3010 
    116 H116       32.0953   33.5047    1.2513 H         1 UNK         0.0829 
    117 H117       30.2426   33.4414   -0.3981 H         1 UNK         0.0813 
    118 H118       31.7355   32.9319   -1.1660 H         1 UNK         0.0813 
    119 H119       30.5367   31.7299   -0.7090 H         1 UNK         0.0813 
    120 H120       31.6941   30.0483    1.6293 H         1 UNK         0.3038 
    121 H121       34.3029   29.3018    0.5693 H         1 UNK         0.0769 
    122 H122       33.7149   27.0741    1.5443 H         1 UNK         0.0811 
    123 H123       32.4289   27.7160    0.5371 H         1 UNK         0.0811 
    124 H124       32.2839   27.7724    2.2928 H         1 UNK         0.0811 
    125 H125       33.3616   30.8621    3.4683 H         1 UNK         0.3204 
    126 H126       34.2917   31.3619    5.3881 H         1 UNK         0.0748 
    127 H127       36.7367   31.6708    5.4956 H         1 UNK         0.0771 
    128 H128       36.9725   30.6434    4.0900 H         1 UNK         0.0771 
    129 H129       36.1414   32.1898    3.9278 H         1 UNK         0.0771 
    130 H130       33.0905   28.9609    5.4877 H         1 UNK         0.2980 
    131 H131       34.6861   26.9009    6.6725 H         1 UNK         0.0545 
    132 H132       34.4270   26.0216    8.9221 H         1 UNK         0.3459 
    133 H133       34.2593   27.1800   10.2147 H         1 UNK         0.3459 
    134 H134       32.6849   26.2614    5.5233 H         1 UNK         0.0616 
    135 H135       32.5053   25.8014    7.1845 H         1 UNK         0.0616 
    136 H136       31.0263   27.6447    4.2156 H         1 UNK         0.0634 
    137 H137       29.4381   28.0009    4.8352 H         1 UNK         0.0634 
@<TRIPOS>BOND
     1    1    2 1    
     2    1   72 1    
     3    1   73 1    
     4    1   74 1    
     5    2    3 2    
     6    2    4 am   BACKBONE|DICT|INTERRES
     7    4    5 1    
     8    4   75 1    
     9    5    6 1    
    10    5   35 1    
    11    5   76 1    
    12    6    7 1    
    13    6   77 1    
    14    6   78 1    
    15    7    8 1    
    16    8    9 1    
    17    8   79 1    
    18    8   80 1    
    19    9   10 ar   
    20    9   14 ar   
    21   10   11 ar   
    22   10   81 1    
    23   11   12 ar   
    24   11   71 1    
    25   12   13 ar   
    26   12   82 1    
    27   13   14 ar   
    28   13   15 1    
    29   14   83 1    
    30   15   16 1    
    31   15   84 1    
    32   15   85 1    
    33   16   17 1    
    34   17   18 1    
    35   17   86 1    
    36   17   87 1    
    37   18   19 1    
    38   18   37 1    
    39   18   88 1    
    40   19   20 am   BACKBONE|DICT|INTERRES
    41   19   89 1    
    42   20   21 2    
    43   20   22 1    
    44   22   23 1    
    45   22   24 1    
    46   22   90 1    
    47   23   91 1    
    48   23   92 1    
    49   23   93 1    
    50   24   25 am   BACKBONE|DICT|INTERRES
    51   24   94 1    
    52   25   26 2    
    53   25   27 1    
    54   27   28 1    
    55   27   29 1    
    56   27   95 1    
    57   28   96 1    
    58   28   97 1    
    59   28   98 1    
    60   29   30 am   BACKBONE|DICT|INTERRES
    61   29   99 1    
    62   30   31 2    
    63   30   32 1    
    64   32   33 1    
    65   32   34 1    
    66   32  100 1    
    67   33  101 1    
    68   33  102 1    
    69   33  103 1    
    70   34   35 am   BACKBONE|DICT|INTERRES
    71   34  104 1    
    72   35   36 2    
    73   37   38 2    
    74   37   39 am   BACKBONE|DICT|INTERRES
    75   39   40 1    
    76   39  105 1    
    77   40   41 1    
    78   40   42 1    
    79   40  106 1    
    80   41  107 1    
    81   41  108 1    
    82   41  109 1    
    83   42   43 2    
    84   42   44 am   BACKBONE|DICT|INTERRES
    85   44   45 1    
    86   44  110 1    
    87   45   46 1    
    88   45   47 1    
    89   45  111 1    
    90   46  112 1    
    91   46  113 1    
    92   46  114 1    
    93   47   48 2    
    94   47   49 am   BACKBONE|DICT|INTERRES
    95   49   50 1    
    96   49  115 1    
    97   50   51 1    
    98   50   52 1    
    99   50  116 1    
   100   51  117 1    
   101   51  118 1    
   102   51  119 1    
   103   52   53 2    
   104   52   54 am   BACKBONE|DICT|INTERRES
   105   54   55 1    
   106   54  120 1    
   107   55   56 1    
   108   55   57 1    
   109   55  121 1    
   110   56  122 1    
   111   56  123 1    
   112   56  124 1    
   113   57   58 2    
   114   57   59 am   BACKBONE|DICT|INTERRES
   115   59   60 1    
   116   59  125 1    
   117   60   61 1    
   118   60   62 1    
   119   60  126 1    
   120   61  127 1    
   121   61  128 1    
   122   61  129 1    
   123   62   63 2    
   124   62   64 am   BACKBONE|DICT|INTERRES
   125   64   65 1    
   126   64  130 1    
   127   65   66 1    
   128   65   69 1    
   129   65  131 1    
   130   66   67 am   BACKBONE|DICT|INTERRES
   131   66   68 2    
   132   67  132 1    
   133   67  133 1    
   134   69   70 1    
   135   69  134 1    
   136   69  135 1    
   137   70   71 1    
   138   71  136 1    
   139   71  137 1    
@<TRIPOS>SUBSTRUCTURE
     1 UNK         1 GROUP             0       ****    0 ROOT    
