@<TRIPOS>MOLECULE
3R136
137   139    1
SMALL
USER_CHARGES


@<TRIPOS>ATOM
      1 CA         29.6226   16.6820   -1.4924 C.3       0 UNK        -0.1979 
      2 C          30.0648   17.9617   -0.7977 C.2       0 UNK         0.4864 
      3 O          31.2589   18.1418   -0.5513 O.2       0 UNK        -0.5359 
      4 N          29.1121   18.8459   -0.4739 N.am      1 UNK        -0.4318 
      5 CA         29.3607   20.1576    0.1341 C.3       1 UNK         0.0824 
      6 C6         28.0852   20.7058    0.8360 C.3       12 UNK        -0.0944 
      7 S7         28.4546   21.5694    2.4015 S.3       12 UNK        -0.2672 
      8 C8         28.1558   23.3126    1.9648 C.3       12 UNK         0.0333 
      9 C9         28.2609   24.2129    3.1851 C.ar      12 UNK        -0.0807 
     10 C10        29.5084   24.4709    3.7615 C.ar      12 UNK        -0.0894 
     11 C11        29.6132   25.2851    4.8925 C.ar      12 UNK        -0.0804 
     12 C12        28.4584   25.8495    5.4433 C.ar      12 UNK        -0.0824 
     13 C13        27.2080   25.6231    4.8569 C.ar      12 UNK        -0.0762 
     14 C14        27.1149   24.7967    3.7327 C.ar      12 UNK        -0.0782 
     15 C15        25.9574   26.2730    5.4334 C.3       12 UNK         0.0230 
     16 S16        26.0174   28.0911    5.3263 S.3       12 UNK        -0.2608 
     17 C17        25.9609   28.3929    3.5220 C.3       12 UNK        -0.0989 
     18 CA         27.3306   28.3969    2.7808 C.3       5 UNK         0.0716 
     19 N          27.1680   28.6777    1.3595 N.am      5 UNK        -0.4135 
     20 C          26.7294   27.8426    0.4150 C.2       4 UNK         0.5031 
     21 O          26.3543   26.6906    0.6402 O.2       4 UNK        -0.5229 
     22 CA         26.6592   28.3899   -1.0280 C.3       4 UNK         0.0329 
     23 CB         27.2008   29.8311   -1.1969 C.3       4 UNK        -0.2001 
     24 N          27.2892   27.4808   -1.9929 N.am      4 UNK        -0.4303 
     25 C          28.5744   27.1010   -2.0137 C.2       3 UNK         0.5044 
     26 O          29.4372   27.5188   -1.2383 O.2       3 UNK        -0.5152 
     27 CA         28.9739   26.1091   -3.1214 C.3       3 UNK         0.0319 
     28 CB         29.5441   26.8588   -4.3365 C.3       3 UNK        -0.2001 
     29 N          29.9684   25.1489   -2.6374 N.am      3 UNK        -0.4354 
     30 C          29.7061   24.2024   -1.7277 C.2       2 UNK         0.4964 
     31 O          28.5724   23.9718   -1.2995 O.2       2 UNK        -0.5047 
     32 CA         30.9203   23.4135   -1.1932 C.3       2 UNK         0.0288 
     33 CB         31.7935   24.3119   -0.2976 C.3       2 UNK        -0.2113 
     34 N          30.5247   22.2361   -0.4155 N.am      2 UNK        -0.4145 
     35 C          29.9035   21.1583   -0.9095 C.2       1 UNK         0.5006 
     36 O          29.7206   20.9649   -2.1160 O.2       1 UNK        -0.5103 
     37 C          28.3493   29.4270    3.3064 C.2       5 UNK         0.5055 
     38 O          28.6614   30.3922    2.5988 O.2       5 UNK        -0.5220 
     39 N          28.8580   29.2037    4.5256 N.am      6 UNK        -0.4450 
     40 CA         29.9251   29.9463    5.2105 C.3       6 UNK         0.0367 
     41 CB         30.0566   29.4284    6.6517 C.3       6 UNK        -0.1929 
     42 C          29.7838   31.4780    5.2211 C.2       6 UNK         0.5070 
     43 O          30.8025   32.1661    5.2309 O.2       6 UNK        -0.5237 
     44 N          28.5462   31.9892    5.1641 N.am      7 UNK        -0.4739 
     45 CA         28.2313   33.4149    5.0159 C.3       7 UNK         0.0276 
     46 CB         26.7062   33.5993    5.0665 C.3       7 UNK        -0.1927 
     47 C          28.8088   34.0589    3.7376 C.2       7 UNK         0.5013 
     48 O          29.0722   35.2622    3.7439 O.2       7 UNK        -0.5193 
     49 N          29.0058   33.2536    2.6848 N.am      8 UNK        -0.4253 
     50 CA         29.6610   33.6432    1.4353 C.3       8 UNK         0.0242 
     51 CB         28.6864   33.4267    0.2655 C.3       8 UNK        -0.2000 
     52 C          30.9555   32.8466    1.2043 C.2       8 UNK         0.4948 
     53 O          31.9313   33.4157    0.7147 O.2       8 UNK        -0.5275 
     54 N          30.9449   31.5487    1.5391 N.am      9 UNK        -0.4246 
     55 CA         32.0274   30.6022    1.2589 C.3       9 UNK         0.0261 
     56 CB         31.4423   29.1799    1.2254 C.3       9 UNK        -0.1959 
     57 C          33.1974   30.6561    2.2545 C.2       9 UNK         0.5033 
     58 O          34.2373   30.0605    1.9675 O.2       9 UNK        -0.5390 
     59 N          33.0099   31.2988    3.4176 N.am      10 UNK        -0.4215 
     60 CA         33.9155   31.3847    4.5752 C.3       10 UNK         0.0240 
     61 CB         35.2630   32.0383    4.2086 C.3       10 UNK        -0.1982 
     62 C          34.1220   30.0513    5.3198 C.2       10 UNK         0.4970 
     63 O          34.0709   30.0441    6.5498 O.2       10 UNK        -0.4916 
     64 N          34.3480   28.9628    4.5730 N.am      11 UNK        -0.4279 
     65 CA         34.5856   27.5891    5.0522 C.3       11 UNK         0.1003 
     66 C          35.9067   27.4060    5.8636 C.2       11 UNK         0.5709 
     67 N          36.8721   28.3131    5.7673 N.am      11 UNK        -0.7358 
     68 O          36.0816   26.4116    6.5644 O.2       11 UNK        -0.4999 
     69 C69        33.3455   26.9698    5.7614 C.3       12 UNK        -0.0954 
     70 S70        31.8871   26.8506    4.6723 S.3       12 UNK        -0.2268 
     71 C71        30.9720   25.5325    5.5289 C.3       12 UNK         0.0203 
     72 H72        30.0951   16.6045   -2.4712 H         1 UNK         0.0888 
     73 H73        29.9152   15.8139   -0.9023 H         1 UNK         0.0888 
     74 H74        28.5425   16.6468   -1.6339 H         1 UNK         0.0888 
     75 H75        28.1550   18.6584   -0.7360 H         1 UNK         0.3017 
     76 H76        30.1407   20.0118    0.8854 H         1 UNK         0.0873 
     77 H77        27.4216   19.8826    1.1066 H         1 UNK         0.0745 
     78 H78        27.4924   21.3439    0.1764 H         1 UNK         0.0745 
     79 H79        27.1769   23.4123    1.4928 H         1 UNK         0.0705 
     80 H80        28.8886   23.6409    1.2315 H         1 UNK         0.0705 
     81 H81        30.3983   24.0269    3.3364 H         1 UNK         0.1334 
     82 H82        28.5310   26.4720    6.3247 H         1 UNK         0.1417 
     83 H83        26.1511   24.6137    3.2767 H         1 UNK         0.1562 
     84 H84        25.8599   25.9852    6.4811 H         1 UNK         0.0748 
     85 H85        25.0574   25.9131    4.9323 H         1 UNK         0.0748 
     86 H86        25.4570   29.3487    3.3665 H         1 UNK         0.0940 
     87 H87        25.3053   27.6435    3.0758 H         1 UNK         0.0940 
     88 H88        27.7999   27.4165    2.8674 H         1 UNK         0.0703 
     89 H89        27.5174   29.5907    1.0956 H         1 UNK         0.3081 
     90 H90        25.5988   28.4114   -1.2833 H         1 UNK         0.0719 
     91 H91        28.2524   29.9147   -0.9189 H         1 UNK         0.0809 
     92 H92        27.1104   30.1621   -2.2316 H         1 UNK         0.0809 
     93 H93        26.6364   30.5411   -0.5909 H         1 UNK         0.0809 
     94 H94        26.6593   27.0568   -2.6596 H         1 UNK         0.2990 
     95 H95        28.0885   25.5539   -3.4391 H         1 UNK         0.0690 
     96 H96        29.8049   26.1715   -5.1416 H         1 UNK         0.0788 
     97 H97        30.4378   27.4279   -4.0763 H         1 UNK         0.0788 
     98 H98        28.8149   27.5642   -4.7373 H         1 UNK         0.0788 
     99 H99        30.9258   25.3127   -2.9128 H         1 UNK         0.2993 
    100 H100       31.5105   23.0754   -2.0478 H         1 UNK         0.0949 
    101 H101       32.6636   23.7733    0.0787 H         1 UNK         0.0767 
    102 H102       32.1666   25.1776   -0.8462 H         1 UNK         0.0767 
    103 H103       31.2356   24.6905    0.5604 H         1 UNK         0.0767 
    104 H104       30.6091   22.3156    0.5870 H         1 UNK         0.3013 
    105 H105       28.4879   28.4085    5.0274 H         1 UNK         0.3121 
    106 H106       30.8523   29.7176    4.6828 H         1 UNK         0.0774 
    107 H107       29.1485   29.6074    7.2287 H         1 UNK         0.0815 
    108 H108       30.2654   28.3600    6.6787 H         1 UNK         0.0815 
    109 H109       30.8784   29.9252    7.1701 H         1 UNK         0.0815 
    110 H110       27.7675   31.3464    5.1565 H         1 UNK         0.2987 
    111 H111       28.6715   33.9387    5.8671 H         1 UNK         0.0949 
    112 H112       26.2087   33.0718    4.2515 H         1 UNK         0.0806 
    113 H113       26.2922   33.2344    6.0067 H         1 UNK         0.0806 
    114 H114       26.4376   34.6535    4.9843 H         1 UNK         0.0806 
    115 H115       28.7574   32.2730    2.7817 H         1 UNK         0.3010 
    116 H116       29.9324   34.7008    1.4599 H         1 UNK         0.0829 
    117 H117       27.7916   34.0387    0.3795 H         1 UNK         0.0813 
    118 H118       29.1477   33.7004   -0.6844 H         1 UNK         0.0813 
    119 H119       28.3715   32.3855    0.1888 H         1 UNK         0.0813 
    120 H120       30.0912   31.1458    1.9215 H         1 UNK         0.3038 
    121 H121       32.4312   30.8253    0.2690 H         1 UNK         0.0769 
    122 H122       30.5968   29.1134    0.5412 H         1 UNK         0.0811 
    123 H123       31.1033   28.8566    2.2099 H         1 UNK         0.0811 
    124 H124       32.1869   28.4575    0.8883 H         1 UNK         0.0811 
    125 H125       32.1051   31.7275    3.5762 H         1 UNK         0.3204 
    126 H126       33.4225   32.0552    5.2804 H         1 UNK         0.0748 
    127 H127       35.8699   32.1998    5.1004 H         1 UNK         0.0771 
    128 H128       35.8501   31.4224    3.5270 H         1 UNK         0.0771 
    129 H129       35.1148   33.0102    3.7377 H         1 UNK         0.0771 
    130 H130       34.3961   29.0994    3.5665 H         1 UNK         0.2980 
    131 H131       34.7548   27.0034    4.1482 H         1 UNK         0.0545 
    132 H132       37.7265   28.1807    6.2851 H         1 UNK         0.3459 
    133 H133       36.7536   29.1256    5.1845 H         1 UNK         0.3459 
    134 H134       33.0756   27.5424    6.6498 H         1 UNK         0.0616 
    135 H135       33.5755   25.9612    6.1090 H         1 UNK         0.0616 
    136 H136       30.8539   25.8010    6.5799 H         1 UNK         0.0634 
    137 H137       31.5601   24.6137    5.5092 H         1 UNK         0.0634 
@<TRIPOS>BOND
     1    1    2 1    
     2    1   72 1    
     3    1   73 1    
     4    1   74 1    
     5    2    3 2    
     6    2    4 am   BACKBONE|DICT|INTERRES
     7    4    5 1    
     8    4   75 1    
     9    5    6 1    
    10    5   35 1    
    11    5   76 1    
    12    6    7 1    
    13    6   77 1    
    14    6   78 1    
    15    7    8 1    
    16    8    9 1    
    17    8   79 1    
    18    8   80 1    
    19    9   10 ar   
    20    9   14 ar   
    21   10   11 ar   
    22   10   81 1    
    23   11   12 ar   
    24   11   71 1    
    25   12   13 ar   
    26   12   82 1    
    27   13   14 ar   
    28   13   15 1    
    29   14   83 1    
    30   15   16 1    
    31   15   84 1    
    32   15   85 1    
    33   16   17 1    
    34   17   18 1    
    35   17   86 1    
    36   17   87 1    
    37   18   19 1    
    38   18   37 1    
    39   18   88 1    
    40   19   20 am   BACKBONE|DICT|INTERRES
    41   19   89 1    
    42   20   21 2    
    43   20   22 1    
    44   22   23 1    
    45   22   24 1    
    46   22   90 1    
    47   23   91 1    
    48   23   92 1    
    49   23   93 1    
    50   24   25 am   BACKBONE|DICT|INTERRES
    51   24   94 1    
    52   25   26 2    
    53   25   27 1    
    54   27   28 1    
    55   27   29 1    
    56   27   95 1    
    57   28   96 1    
    58   28   97 1    
    59   28   98 1    
    60   29   30 am   BACKBONE|DICT|INTERRES
    61   29   99 1    
    62   30   31 2    
    63   30   32 1    
    64   32   33 1    
    65   32   34 1    
    66   32  100 1    
    67   33  101 1    
    68   33  102 1    
    69   33  103 1    
    70   34   35 am   BACKBONE|DICT|INTERRES
    71   34  104 1    
    72   35   36 2    
    73   37   38 2    
    74   37   39 am   BACKBONE|DICT|INTERRES
    75   39   40 1    
    76   39  105 1    
    77   40   41 1    
    78   40   42 1    
    79   40  106 1    
    80   41  107 1    
    81   41  108 1    
    82   41  109 1    
    83   42   43 2    
    84   42   44 am   BACKBONE|DICT|INTERRES
    85   44   45 1    
    86   44  110 1    
    87   45   46 1    
    88   45   47 1    
    89   45  111 1    
    90   46  112 1    
    91   46  113 1    
    92   46  114 1    
    93   47   48 2    
    94   47   49 am   BACKBONE|DICT|INTERRES
    95   49   50 1    
    96   49  115 1    
    97   50   51 1    
    98   50   52 1    
    99   50  116 1    
   100   51  117 1    
   101   51  118 1    
   102   51  119 1    
   103   52   53 2    
   104   52   54 am   BACKBONE|DICT|INTERRES
   105   54   55 1    
   106   54  120 1    
   107   55   56 1    
   108   55   57 1    
   109   55  121 1    
   110   56  122 1    
   111   56  123 1    
   112   56  124 1    
   113   57   58 2    
   114   57   59 am   BACKBONE|DICT|INTERRES
   115   59   60 1    
   116   59  125 1    
   117   60   61 1    
   118   60   62 1    
   119   60  126 1    
   120   61  127 1    
   121   61  128 1    
   122   61  129 1    
   123   62   63 2    
   124   62   64 am   BACKBONE|DICT|INTERRES
   125   64   65 1    
   126   64  130 1    
   127   65   66 1    
   128   65   69 1    
   129   65  131 1    
   130   66   67 am   BACKBONE|DICT|INTERRES
   131   66   68 2    
   132   67  132 1    
   133   67  133 1    
   134   69   70 1    
   135   69  134 1    
   136   69  135 1    
   137   70   71 1    
   138   71  136 1    
   139   71  137 1    
@<TRIPOS>SUBSTRUCTURE
     1 UNK         1 GROUP             0       ****    0 ROOT    
