@<TRIPOS>MOLECULE
3R136
137   139    1
SMALL
USER_CHARGES


@<TRIPOS>ATOM
      1 CA         24.6535   22.6802    4.8427 C.3       0 UNK        -0.1979 
      2 C          25.3452   22.0849    3.6248 C.2       0 UNK         0.4864 
      3 O          24.8313   21.1337    3.0334 O.2       0 UNK        -0.5359 
      4 N          26.5101   22.6324    3.2538 N.am      1 UNK        -0.4318 
      5 CA         27.2804   22.2399    2.0693 C.3       1 UNK         0.0824 
      6 C6         28.7579   22.6961    2.1814 C.3       12 UNK        -0.0944 
      7 S7         29.8877   21.6179    1.2436 S.3       12 UNK        -0.2672 
      8 C8         31.4508   21.8670    2.1514 C.3       12 UNK         0.0333 
      9 C9         32.0170   23.2769    2.0062 C.ar      12 UNK        -0.0807 
     10 C10        32.4992   23.9605    3.1281 C.ar      12 UNK        -0.0894 
     11 C11        33.0768   25.2279    2.9948 C.ar      12 UNK        -0.0804 
     12 C12        33.1481   25.8224    1.7304 C.ar      12 UNK        -0.0824 
     13 C13        32.6580   25.1563    0.6037 C.ar      12 UNK        -0.0762 
     14 C14        32.1085   23.8796    0.7472 C.ar      12 UNK        -0.0782 
     15 C15        32.7449   25.7977   -0.7752 C.3       12 UNK         0.0230 
     16 S16        31.6211   27.2188   -0.9722 S.3       12 UNK        -0.2608 
     17 C17        29.9764   26.4747   -0.6854 C.3       12 UNK        -0.0989 
     18 CA         29.0595   27.3577    0.1995 C.3       5 UNK         0.0716 
     19 N          27.6471   27.0125   -0.0005 N.am      5 UNK        -0.4135 
     20 C          26.6102   27.7932    0.3449 C.2       4 UNK         0.5031 
     21 O          26.7389   28.8810    0.9088 O.2       4 UNK        -0.5229 
     22 CA         25.1963   27.2689    0.0122 C.3       4 UNK         0.0329 
     23 CB         24.1371   28.3903   -0.0518 C.3       4 UNK        -0.2001 
     24 N          25.1596   26.4418   -1.1992 N.am      4 UNK        -0.4303 
     25 C          25.5162   26.8004   -2.4440 C.2       3 UNK         0.5044 
     26 O          25.8164   27.9511   -2.7655 O.2       3 UNK        -0.5152 
     27 CA         25.5685   25.6790   -3.5060 C.3       3 UNK         0.0319 
     28 CB         26.6872   25.9150   -4.5435 C.3       3 UNK        -0.2001 
     29 N          25.6682   24.3194   -2.9503 N.am      3 UNK        -0.4354 
     30 C          26.6309   23.8389   -2.1483 C.2       2 UNK         0.4964 
     31 O          27.5993   24.4945   -1.7558 O.2       2 UNK        -0.5047 
     32 CA         26.4587   22.3775   -1.7005 C.3       2 UNK         0.0288 
     33 CB         27.1598   21.4334   -2.6907 C.3       2 UNK        -0.2113 
     34 N          26.9697   22.1137   -0.3527 N.am      2 UNK        -0.4145 
     35 C          26.6136   22.7506    0.7720 C.2       1 UNK         0.5006 
     36 O          25.8161   23.6943    0.8110 O.2       1 UNK        -0.5103 
     37 C          29.4806   27.3613    1.6889 C.2       5 UNK         0.5055 
     38 O          30.4735   28.0033    2.0280 O.2       5 UNK        -0.5220 
     39 N          28.7104   26.6922    2.5617 N.am      6 UNK        -0.4450 
     40 CA         28.8850   26.6999    4.0166 C.3       6 UNK         0.0367 
     41 CB         28.1066   25.5240    4.6323 C.3       6 UNK        -0.1929 
     42 C          28.4749   28.0505    4.6373 C.2       6 UNK         0.5070 
     43 O          27.4183   28.1469    5.2648 O.2       6 UNK        -0.5237 
     44 N          29.3116   29.0710    4.4409 N.am      7 UNK        -0.4739 
     45 CA         29.1631   30.4159    4.9832 C.3       7 UNK         0.0276 
     46 CB         28.4581   31.3111    3.9503 C.3       7 UNK        -0.1927 
     47 C          30.5569   30.9558    5.3073 C.2       7 UNK         0.5013 
     48 O          31.4977   30.6933    4.5538 O.2       7 UNK        -0.5193 
     49 N          30.6657   31.7382    6.3899 N.am      8 UNK        -0.4253 
     50 CA         31.9212   32.3040    6.9044 C.3       8 UNK         0.0242 
     51 CB         31.6361   33.0864    8.1963 C.3       8 UNK        -0.2000 
     52 C          32.6915   33.1843    5.9033 C.2       8 UNK         0.4948 
     53 O          33.9179   33.2490    5.9821 O.2       8 UNK        -0.5275 
     54 N          31.9736   33.8039    4.9558 N.am      9 UNK        -0.4246 
     55 CA         32.5394   34.5609    3.8362 C.3       9 UNK         0.0261 
     56 CB         31.4024   35.2695    3.0819 C.3       9 UNK        -0.1959 
     57 C          33.3764   33.7044    2.8648 C.2       9 UNK         0.5033 
     58 O          34.2717   34.2487    2.2164 O.2       9 UNK        -0.5390 
     59 N          33.0803   32.3998    2.7808 N.am      10 UNK        -0.4215 
     60 CA         33.8259   31.4250    1.9862 C.3       10 UNK         0.0240 
     61 CB         32.8395   30.5355    1.2114 C.3       10 UNK        -0.1982 
     62 C          34.7332   30.5699    2.8814 C.2       10 UNK         0.4970 
     63 O          35.8980   30.3682    2.5355 O.2       10 UNK        -0.4916 
     64 N          34.1880   30.0727    3.9993 N.am      11 UNK        -0.4279 
     65 CA         34.8717   29.1494    4.9171 C.3       11 UNK         0.1003 
     66 C          35.9307   29.8073    5.8452 C.2       11 UNK         0.5709 
     67 N          35.9316   31.1190    6.0462 N.am      11 UNK        -0.7358 
     68 O          36.7829   29.1078    6.3879 O.2       11 UNK        -0.4999 
     69 C69        33.8694   28.2897    5.7340 C.3       12 UNK        -0.0954 
     70 S70        32.6821   27.3895    4.6823 S.3       12 UNK        -0.2268 
     71 C71        33.6695   25.9412    4.2018 C.3       12 UNK         0.0203 
     72 H72        25.2276   23.4964    5.2810 H         1 UNK         0.0888 
     73 H73        23.6733   23.0666    4.5647 H         1 UNK         0.0888 
     74 H74        24.5148   21.9156    5.6066 H         1 UNK         0.0888 
     75 H75        26.8633   23.4254    3.7656 H         1 UNK         0.3017 
     76 H76        27.2607   21.1477    2.0372 H         1 UNK         0.0873 
     77 H77        28.8949   23.7334    1.8682 H         1 UNK         0.0745 
     78 H78        29.0784   22.6466    3.2227 H         1 UNK         0.0745 
     79 H79        31.2953   21.6146    3.2016 H         1 UNK         0.0705 
     80 H80        32.1886   21.1588    1.7723 H         1 UNK         0.0705 
     81 H81        32.4493   23.4956    4.1033 H         1 UNK         0.1334 
     82 H82        33.5811   26.8080    1.6246 H         1 UNK         0.1417 
     83 H83        31.7480   23.3510   -0.1248 H         1 UNK         0.1562 
     84 H84        32.5295   25.0682   -1.5576 H         1 UNK         0.0748 
     85 H85        33.7681   26.1342   -0.9478 H         1 UNK         0.0748 
     86 H86        30.0593   25.4693   -0.2714 H         1 UNK         0.0940 
     87 H87        29.5270   26.3478   -1.6716 H         1 UNK         0.0940 
     88 H88        29.1691   28.3882   -0.1464 H         1 UNK         0.0703 
     89 H89        27.4655   26.1406   -0.4882 H         1 UNK         0.3081 
     90 H90        24.9238   26.6067    0.8356 H         1 UNK         0.0719 
     91 H91        23.1486   27.9905   -0.2773 H         1 UNK         0.0809 
     92 H92        24.3800   29.1346   -0.8107 H         1 UNK         0.0809 
     93 H93        24.0631   28.9134    0.9025 H         1 UNK         0.0809 
     94 H94        24.9464   25.4655   -1.0435 H         1 UNK         0.2990 
     95 H95        24.6142   25.7231   -4.0330 H         1 UNK         0.0690 
     96 H96        26.5418   26.8578   -5.0724 H         1 UNK         0.0788 
     97 H97        26.7053   25.1254   -5.2946 H         1 UNK         0.0788 
     98 H98        27.6711   25.9545   -4.0746 H         1 UNK         0.0788 
     99 H99        24.9121   23.6982   -3.2059 H         1 UNK         0.2993 
    100 H100       25.3921   22.1438   -1.6878 H         1 UNK         0.0949 
    101 H101       28.2373   21.6038   -2.7126 H         1 UNK         0.0767 
    102 H102       26.9898   20.3877   -2.4329 H         1 UNK         0.0767 
    103 H103       26.7865   21.5792   -3.7055 H         1 UNK         0.0767 
    104 H104       27.6818   21.4008   -0.2813 H         1 UNK         0.3013 
    105 H105       27.8839   26.2371    2.2062 H         1 UNK         0.3121 
    106 H106       29.9417   26.5421    4.2381 H         1 UNK         0.0774 
    107 H107       28.5300   24.5725    4.3217 H         1 UNK         0.0815 
    108 H108       28.1610   25.5496    5.7217 H         1 UNK         0.0815 
    109 H109       27.0513   25.5475    4.3583 H         1 UNK         0.0815 
    110 H110       30.1492   28.9140    3.8842 H         1 UNK         0.2987 
    111 H111       28.5743   30.3815    5.9026 H         1 UNK         0.0949 
    112 H112       29.0261   31.3754    3.0208 H         1 UNK         0.0806 
    113 H113       27.4669   30.9277    3.7066 H         1 UNK         0.0806 
    114 H114       28.3301   32.3256    4.3295 H         1 UNK         0.0806 
    115 H115       29.8369   31.9218    6.9377 H         1 UNK         0.3010 
    116 H116       32.5737   31.4638    7.1524 H         1 UNK         0.0829 
    117 H117       32.5561   33.4976    8.6147 H         1 UNK         0.0813 
    118 H118       30.9563   33.9213    8.0217 H         1 UNK         0.0813 
    119 H119       31.1949   32.4461    8.9604 H         1 UNK         0.0813 
    120 H120       30.9698   33.7005    4.9763 H         1 UNK         0.3038 
    121 H121       33.2024   35.3224    4.2525 H         1 UNK         0.0769 
    122 H122       31.7945   35.8655    2.2564 H         1 UNK         0.0811 
    123 H123       30.8533   35.9477    3.7353 H         1 UNK         0.0811 
    124 H124       30.6916   34.5575    2.6602 H         1 UNK         0.0811 
    125 H125       32.3561   32.0210    3.3837 H         1 UNK         0.3204 
    126 H126       34.4602   31.9332    1.2568 H         1 UNK         0.0748 
    127 H127       33.3652   29.7803    0.6254 H         1 UNK         0.0771 
    128 H128       32.1594   30.0094    1.8819 H         1 UNK         0.0771 
    129 H129       32.2356   31.1221    0.5191 H         1 UNK         0.0771 
    130 H130       33.2080   30.2553    4.2040 H         1 UNK         0.2980 
    131 H131       35.4401   28.4576    4.2933 H         1 UNK         0.0545 
    132 H132       35.2071   31.7180    5.6688 H         1 UNK         0.3459 
    133 H133       36.6359   31.5170    6.6461 H         1 UNK         0.3459 
    134 H134       34.3947   27.5660    6.3601 H         1 UNK         0.0616 
    135 H135       33.2971   28.9245    6.4128 H         1 UNK         0.0616 
    136 H136       34.6858   26.2519    3.9582 H         1 UNK         0.0634 
    137 H137       33.7490   25.2666    5.0556 H         1 UNK         0.0634 
@<TRIPOS>BOND
     1    1    2 1    
     2    1   72 1    
     3    1   73 1    
     4    1   74 1    
     5    2    3 2    
     6    2    4 am   BACKBONE|DICT|INTERRES
     7    4    5 1    
     8    4   75 1    
     9    5    6 1    
    10    5   35 1    
    11    5   76 1    
    12    6    7 1    
    13    6   77 1    
    14    6   78 1    
    15    7    8 1    
    16    8    9 1    
    17    8   79 1    
    18    8   80 1    
    19    9   10 ar   
    20    9   14 ar   
    21   10   11 ar   
    22   10   81 1    
    23   11   12 ar   
    24   11   71 1    
    25   12   13 ar   
    26   12   82 1    
    27   13   14 ar   
    28   13   15 1    
    29   14   83 1    
    30   15   16 1    
    31   15   84 1    
    32   15   85 1    
    33   16   17 1    
    34   17   18 1    
    35   17   86 1    
    36   17   87 1    
    37   18   19 1    
    38   18   37 1    
    39   18   88 1    
    40   19   20 am   BACKBONE|DICT|INTERRES
    41   19   89 1    
    42   20   21 2    
    43   20   22 1    
    44   22   23 1    
    45   22   24 1    
    46   22   90 1    
    47   23   91 1    
    48   23   92 1    
    49   23   93 1    
    50   24   25 am   BACKBONE|DICT|INTERRES
    51   24   94 1    
    52   25   26 2    
    53   25   27 1    
    54   27   28 1    
    55   27   29 1    
    56   27   95 1    
    57   28   96 1    
    58   28   97 1    
    59   28   98 1    
    60   29   30 am   BACKBONE|DICT|INTERRES
    61   29   99 1    
    62   30   31 2    
    63   30   32 1    
    64   32   33 1    
    65   32   34 1    
    66   32  100 1    
    67   33  101 1    
    68   33  102 1    
    69   33  103 1    
    70   34   35 am   BACKBONE|DICT|INTERRES
    71   34  104 1    
    72   35   36 2    
    73   37   38 2    
    74   37   39 am   BACKBONE|DICT|INTERRES
    75   39   40 1    
    76   39  105 1    
    77   40   41 1    
    78   40   42 1    
    79   40  106 1    
    80   41  107 1    
    81   41  108 1    
    82   41  109 1    
    83   42   43 2    
    84   42   44 am   BACKBONE|DICT|INTERRES
    85   44   45 1    
    86   44  110 1    
    87   45   46 1    
    88   45   47 1    
    89   45  111 1    
    90   46  112 1    
    91   46  113 1    
    92   46  114 1    
    93   47   48 2    
    94   47   49 am   BACKBONE|DICT|INTERRES
    95   49   50 1    
    96   49  115 1    
    97   50   51 1    
    98   50   52 1    
    99   50  116 1    
   100   51  117 1    
   101   51  118 1    
   102   51  119 1    
   103   52   53 2    
   104   52   54 am   BACKBONE|DICT|INTERRES
   105   54   55 1    
   106   54  120 1    
   107   55   56 1    
   108   55   57 1    
   109   55  121 1    
   110   56  122 1    
   111   56  123 1    
   112   56  124 1    
   113   57   58 2    
   114   57   59 am   BACKBONE|DICT|INTERRES
   115   59   60 1    
   116   59  125 1    
   117   60   61 1    
   118   60   62 1    
   119   60  126 1    
   120   61  127 1    
   121   61  128 1    
   122   61  129 1    
   123   62   63 2    
   124   62   64 am   BACKBONE|DICT|INTERRES
   125   64   65 1    
   126   64  130 1    
   127   65   66 1    
   128   65   69 1    
   129   65  131 1    
   130   66   67 am   BACKBONE|DICT|INTERRES
   131   66   68 2    
   132   67  132 1    
   133   67  133 1    
   134   69   70 1    
   135   69  134 1    
   136   69  135 1    
   137   70   71 1    
   138   71  136 1    
   139   71  137 1    
@<TRIPOS>SUBSTRUCTURE
     1 UNK         1 GROUP             0       ****    0 ROOT    
