@<TRIPOS>MOLECULE
3R136
137   139    1
SMALL
USER_CHARGES


@<TRIPOS>ATOM
      1 CA         33.5645   22.2489   -3.8771 C.3       0 UNK        -0.1979 
      2 C          33.1435   23.5195   -3.1530 C.2       0 UNK         0.4864 
      3 O          33.3037   24.6139   -3.6958 O.2       0 UNK        -0.5359 
      4 N          32.6155   23.3816   -1.9307 N.am      1 UNK        -0.4318 
      5 CA         32.0822   24.4776   -1.1170 C.3       1 UNK         0.0824 
      6 C6         31.9663   24.0713    0.3776 C.3       12 UNK        -0.0944 
      7 S7         30.9003   22.6147    0.6705 S.3       12 UNK        -0.2672 
      8 C8         31.5696   21.9701    2.2319 C.3       12 UNK         0.0333 
      9 C9         31.1674   22.8203    3.4293 C.ar      12 UNK        -0.0807 
     10 C10        32.1218   23.5784    4.1114 C.ar      12 UNK        -0.0894 
     11 C11        31.7863   24.2878    5.2699 C.ar      12 UNK        -0.0804 
     12 C12        30.4584   24.2547    5.7245 C.ar      12 UNK        -0.0824 
     13 C13        29.4891   23.5089    5.0422 C.ar      12 UNK        -0.0762 
     14 C14        29.8512   22.7961    3.8960 C.ar      12 UNK        -0.0782 
     15 C15        28.0658   23.4000    5.5756 C.3       12 UNK         0.0230 
     16 S16        26.8674   24.3527    4.5866 S.3       12 UNK        -0.2608 
     17 C17        27.1224   26.0442    5.2164 C.3       12 UNK        -0.0989 
     18 CA         27.6462   27.0048    4.1195 C.3       5 UNK         0.0716 
     19 N          26.7277   27.2067    2.9869 N.am      5 UNK        -0.4135 
     20 C          25.4845   27.7152    3.0049 C.2       4 UNK         0.5031 
     21 O          24.9260   28.1170    4.0270 O.2       4 UNK        -0.5229 
     22 CA         24.7421   27.8540    1.6618 C.3       4 UNK         0.0329 
     23 CB         24.8040   29.3111    1.1739 C.3       4 UNK        -0.2001 
     24 N          25.2589   26.9797    0.6088 N.am      4 UNK        -0.4303 
     25 C          25.1496   25.6443    0.5937 C.2       3 UNK         0.5044 
     26 O          24.4941   25.0048    1.4167 O.2       3 UNK        -0.5152 
     27 CA         25.9033   24.8869   -0.5175 C.3       3 UNK         0.0319 
     28 CB         24.9146   24.3516   -1.5667 C.3       3 UNK        -0.2001 
     29 N          26.9562   25.6504   -1.2031 N.am      3 UNK        -0.4354 
     30 C          28.0502   26.1689   -0.6273 C.2       2 UNK         0.4964 
     31 O          28.2497   26.1766    0.5897 O.2       2 UNK        -0.5047 
     32 CA         29.0765   26.8229   -1.5694 C.3       2 UNK         0.0288 
     33 CB         29.1365   28.3408   -1.3435 C.3       2 UNK        -0.2113 
     34 N          30.4070   26.2488   -1.3691 N.am      2 UNK        -0.4145 
     35 C          30.7311   24.9846   -1.6667 C.2       1 UNK         0.5006 
     36 O          29.9939   24.2243   -2.3035 O.2       1 UNK        -0.5103 
     37 C          28.1545   28.3184    4.7478 C.2       5 UNK         0.5055 
     38 O          29.3559   28.4433    4.9642 O.2       5 UNK        -0.5220 
     39 N          27.2606   29.2747    5.0238 N.am      6 UNK        -0.4450 
     40 CA         27.5676   30.5783    5.6230 C.3       6 UNK         0.0367 
     41 CB         26.2621   31.1944    6.1529 C.3       6 UNK        -0.1929 
     42 C          28.2808   31.5595    4.6710 C.2       6 UNK         0.5070 
     43 O          28.7528   32.6021    5.1269 O.2       6 UNK        -0.5237 
     44 N          28.3247   31.2339    3.3727 N.am      7 UNK        -0.4739 
     45 CA         29.0102   31.9989    2.3313 C.3       7 UNK         0.0276 
     46 CB         28.5804   31.4492    0.9619 C.3       7 UNK        -0.1927 
     47 C          30.5411   31.9405    2.4750 C.2       7 UNK         0.5013 
     48 O          31.0759   30.9750    3.0258 O.2       7 UNK        -0.5193 
     49 N          31.2222   32.9555    1.9237 N.am      8 UNK        -0.4253 
     50 CA         32.6851   33.0909    1.9266 C.3       8 UNK         0.0242 
     51 CB         33.0692   34.4698    1.3660 C.3       8 UNK        -0.2000 
     52 C          33.4236   31.9755    1.1630 C.2       8 UNK         0.4948 
     53 O          34.5658   31.6682    1.5024 O.2       8 UNK        -0.5275 
     54 N          32.7500   31.3585    0.1826 N.am      9 UNK        -0.4246 
     55 CA         33.2077   30.1777   -0.5569 C.3       9 UNK         0.0261 
     56 CB         32.6520   30.2443   -1.9912 C.3       9 UNK        -0.1959 
     57 C          32.8402   28.8580    0.1574 C.2       9 UNK         0.5033 
     58 O          32.6195   27.8423   -0.5046 O.2       9 UNK        -0.5390 
     59 N          32.7595   28.8896    1.4901 N.am      10 UNK        -0.4215 
     60 CA         32.4614   27.7652    2.3655 C.3       10 UNK         0.0240 
     61 CB         30.9609   27.4161    2.3079 C.3       10 UNK        -0.1982 
     62 C          32.9989   28.0992    3.7658 C.2       10 UNK         0.4970 
     63 O          34.1963   28.3604    3.8919 O.2       10 UNK        -0.4916 
     64 N          32.1369   28.0653    4.7866 N.am      11 UNK        -0.4279 
     65 CA         32.4663   28.2994    6.1993 C.3       11 UNK         0.1003 
     66 C          32.3275   29.7888    6.6328 C.2       11 UNK         0.5709 
     67 N          31.8700   30.7064    5.7903 N.am      11 UNK        -0.7358 
     68 O          32.6675   30.1275    7.7643 O.2       11 UNK        -0.4999 
     69 C69        31.6417   27.3424    7.1151 C.3       12 UNK        -0.0954 
     70 S70        32.5181   25.8149    7.5926 S.3       12 UNK        -0.2268 
     71 C71        32.9215   25.0111    6.0015 C.3       12 UNK         0.0203 
     72 H72        33.0123   22.1495   -4.8113 H         1 UNK         0.0888 
     73 H73        34.6281   22.2849   -4.1112 H         1 UNK         0.0888 
     74 H74        33.3794   21.3577   -3.2776 H         1 UNK         0.0888 
     75 H75        32.4671   22.4579   -1.5499 H         1 UNK         0.3017 
     76 H76        32.7926   25.3044   -1.1815 H         1 UNK         0.0873 
     77 H77        32.9632   23.8628    0.7685 H         1 UNK         0.0745 
     78 H78        31.5853   24.8994    0.9764 H         1 UNK         0.0745 
     79 H79        31.1945   20.9561    2.3773 H         1 UNK         0.0705 
     80 H80        32.6545   21.8814    2.1570 H         1 UNK         0.0705 
     81 H81        33.1449   23.5853    3.7603 H         1 UNK         0.1334 
     82 H82        30.1748   24.7762    6.6265 H         1 UNK         0.1417 
     83 H83        29.1104   22.2030    3.3767 H         1 UNK         0.1562 
     84 H84        28.0133   23.7077    6.6211 H         1 UNK         0.0748 
     85 H85        27.7645   22.3514    5.5614 H         1 UNK         0.0748 
     86 H86        27.8230   26.0056    6.0530 H         1 UNK         0.0940 
     87 H87        26.1815   26.4034    5.6360 H         1 UNK         0.0940 
     88 H88        28.5218   26.5281    3.6785 H         1 UNK         0.0703 
     89 H89        27.1047   26.9055    2.0927 H         1 UNK         0.3081 
     90 H90        23.6965   27.5928    1.8381 H         1 UNK         0.0719 
     91 H91        25.8270   29.6231    0.9604 H         1 UNK         0.0809 
     92 H92        24.2134   29.4520    0.2684 H         1 UNK         0.0809 
     93 H93        24.4055   29.9934    1.9263 H         1 UNK         0.0809 
     94 H94        25.8040   27.4147   -0.1206 H         1 UNK         0.2990 
     95 H95        26.3876   24.0328   -0.0394 H         1 UNK         0.0690 
     96 H96        25.4155   23.7177   -2.2987 H         1 UNK         0.0788 
     97 H97        24.4192   25.1615   -2.1038 H         1 UNK         0.0788 
     98 H98        24.1359   23.7469   -1.0992 H         1 UNK         0.0788 
     99 H99        26.8734   25.7070   -2.2083 H         1 UNK         0.2993 
    100 H100       28.7785   26.6416   -2.6044 H         1 UNK         0.0949 
    101 H101       28.1433   28.7897   -1.3871 H         1 UNK         0.0767 
    102 H102       29.5680   28.5824   -0.3722 H         1 UNK         0.0767 
    103 H103       29.7418   28.8225   -2.1101 H         1 UNK         0.0767 
    104 H104       31.0968   26.8298   -0.8960 H         1 UNK         0.3013 
    105 H105       26.2855   29.0739    4.8085 H         1 UNK         0.3121 
    106 H106       28.2381   30.4125    6.4691 H         1 UNK         0.0774 
    107 H107       25.5462   31.3723    5.3494 H         1 UNK         0.0815 
    108 H108       26.4499   32.1517    6.6412 H         1 UNK         0.0815 
    109 H109       25.7870   30.5456    6.8889 H         1 UNK         0.0815 
    110 H110       27.9442   30.3401    3.1043 H         1 UNK         0.2987 
    111 H111       28.6944   33.0415    2.4119 H         1 UNK         0.0949 
    112 H112       28.8342   30.3945    0.8611 H         1 UNK         0.0806 
    113 H113       27.5053   31.5515    0.8140 H         1 UNK         0.0806 
    114 H114       29.0677   31.9839    0.1457 H         1 UNK         0.0806 
    115 H115       30.7045   33.7031    1.4837 H         1 UNK         0.3010 
    116 H116       33.0154   33.0399    2.9665 H         1 UNK         0.0829 
    117 H117       32.6332   35.2753    1.9574 H         1 UNK         0.0813 
    118 H118       34.1512   34.6097    1.3818 H         1 UNK         0.0813 
    119 H119       32.7403   34.5931    0.3334 H         1 UNK         0.0813 
    120 H120       31.8088   31.6690   -0.0081 H         1 UNK         0.3038 
    121 H121       34.2974   30.1982   -0.6253 H         1 UNK         0.0769 
    122 H122       31.5629   30.2514   -2.0005 H         1 UNK         0.0811 
    123 H123       32.9814   29.3910   -2.5858 H         1 UNK         0.0811 
    124 H124       32.9951   31.1425   -2.5048 H         1 UNK         0.0811 
    125 H125       32.9550   29.7611    1.9668 H         1 UNK         0.3204 
    126 H126       33.0268   26.8973    2.0202 H         1 UNK         0.0748 
    127 H127       30.3383   28.2736    2.5618 H         1 UNK         0.0771 
    128 H128       30.6694   27.0948    1.3107 H         1 UNK         0.0771 
    129 H129       30.7209   26.5937    2.9826 H         1 UNK         0.0771 
    130 H130       31.1414   27.9756    4.6005 H         1 UNK         0.2980 
    131 H131       33.5244   28.0771    6.3474 H         1 UNK         0.0545 
    132 H132       31.7931   31.6594    6.1042 H         1 UNK         0.3459 
    133 H133       31.5766   30.4687    4.8479 H         1 UNK         0.3459 
    134 H134       31.3683   27.8247    8.0553 H         1 UNK         0.0616 
    135 H135       30.6916   27.0714    6.6562 H         1 UNK         0.0616 
    136 H136       33.6922   24.2704    6.2193 H         1 UNK         0.0634 
    137 H137       33.3935   25.7285    5.3334 H         1 UNK         0.0634 
@<TRIPOS>BOND
     1    1    2 1    
     2    1   72 1    
     3    1   73 1    
     4    1   74 1    
     5    2    3 2    
     6    2    4 am   BACKBONE|DICT|INTERRES
     7    4    5 1    
     8    4   75 1    
     9    5    6 1    
    10    5   35 1    
    11    5   76 1    
    12    6    7 1    
    13    6   77 1    
    14    6   78 1    
    15    7    8 1    
    16    8    9 1    
    17    8   79 1    
    18    8   80 1    
    19    9   10 ar   
    20    9   14 ar   
    21   10   11 ar   
    22   10   81 1    
    23   11   12 ar   
    24   11   71 1    
    25   12   13 ar   
    26   12   82 1    
    27   13   14 ar   
    28   13   15 1    
    29   14   83 1    
    30   15   16 1    
    31   15   84 1    
    32   15   85 1    
    33   16   17 1    
    34   17   18 1    
    35   17   86 1    
    36   17   87 1    
    37   18   19 1    
    38   18   37 1    
    39   18   88 1    
    40   19   20 am   BACKBONE|DICT|INTERRES
    41   19   89 1    
    42   20   21 2    
    43   20   22 1    
    44   22   23 1    
    45   22   24 1    
    46   22   90 1    
    47   23   91 1    
    48   23   92 1    
    49   23   93 1    
    50   24   25 am   BACKBONE|DICT|INTERRES
    51   24   94 1    
    52   25   26 2    
    53   25   27 1    
    54   27   28 1    
    55   27   29 1    
    56   27   95 1    
    57   28   96 1    
    58   28   97 1    
    59   28   98 1    
    60   29   30 am   BACKBONE|DICT|INTERRES
    61   29   99 1    
    62   30   31 2    
    63   30   32 1    
    64   32   33 1    
    65   32   34 1    
    66   32  100 1    
    67   33  101 1    
    68   33  102 1    
    69   33  103 1    
    70   34   35 am   BACKBONE|DICT|INTERRES
    71   34  104 1    
    72   35   36 2    
    73   37   38 2    
    74   37   39 am   BACKBONE|DICT|INTERRES
    75   39   40 1    
    76   39  105 1    
    77   40   41 1    
    78   40   42 1    
    79   40  106 1    
    80   41  107 1    
    81   41  108 1    
    82   41  109 1    
    83   42   43 2    
    84   42   44 am   BACKBONE|DICT|INTERRES
    85   44   45 1    
    86   44  110 1    
    87   45   46 1    
    88   45   47 1    
    89   45  111 1    
    90   46  112 1    
    91   46  113 1    
    92   46  114 1    
    93   47   48 2    
    94   47   49 am   BACKBONE|DICT|INTERRES
    95   49   50 1    
    96   49  115 1    
    97   50   51 1    
    98   50   52 1    
    99   50  116 1    
   100   51  117 1    
   101   51  118 1    
   102   51  119 1    
   103   52   53 2    
   104   52   54 am   BACKBONE|DICT|INTERRES
   105   54   55 1    
   106   54  120 1    
   107   55   56 1    
   108   55   57 1    
   109   55  121 1    
   110   56  122 1    
   111   56  123 1    
   112   56  124 1    
   113   57   58 2    
   114   57   59 am   BACKBONE|DICT|INTERRES
   115   59   60 1    
   116   59  125 1    
   117   60   61 1    
   118   60   62 1    
   119   60  126 1    
   120   61  127 1    
   121   61  128 1    
   122   61  129 1    
   123   62   63 2    
   124   62   64 am   BACKBONE|DICT|INTERRES
   125   64   65 1    
   126   64  130 1    
   127   65   66 1    
   128   65   69 1    
   129   65  131 1    
   130   66   67 am   BACKBONE|DICT|INTERRES
   131   66   68 2    
   132   67  132 1    
   133   67  133 1    
   134   69   70 1    
   135   69  134 1    
   136   69  135 1    
   137   70   71 1    
   138   71  136 1    
   139   71  137 1    
@<TRIPOS>SUBSTRUCTURE
     1 UNK         1 GROUP             0       ****    0 ROOT    
