@<TRIPOS>MOLECULE
3R136
137   139    1
SMALL
USER_CHARGES


@<TRIPOS>ATOM
      1 CA         33.1605   22.0925   -0.1223 C.3       0 UNK        -0.1979 
      2 C          31.7979   22.5557    0.3664 C.2       0 UNK         0.4864 
      3 O          31.5175   23.7538    0.3674 O.2       0 UNK        -0.5359 
      4 N          30.9357   21.6117    0.7645 N.am      1 UNK        -0.4318 
      5 CA         29.6181   21.8645    1.3674 C.3       1 UNK         0.0824 
      6 C6         28.9956   20.5804    1.9745 C.3       12 UNK        -0.0944 
      7 S7         30.1476   19.6045    3.0018 S.3       12 UNK        -0.2672 
      8 C8         29.9061   20.3333    4.6515 C.3       12 UNK         0.0333 
      9 C9         30.6655   21.6427    4.8153 C.ar      12 UNK        -0.0807 
     10 C10        32.0600   21.6338    4.9155 C.ar      12 UNK        -0.0894 
     11 C11        32.7677   22.8224    5.1172 C.ar      12 UNK        -0.0804 
     12 C12        32.0693   24.0309    5.2100 C.ar      12 UNK        -0.0824 
     13 C13        30.6751   24.0542    5.1015 C.ar      12 UNK        -0.0762 
     14 C14        29.9788   22.8568    4.9077 C.ar      12 UNK        -0.0782 
     15 C15        29.9067   25.3577    5.2545 C.3       12 UNK         0.0230 
     16 S16        29.2676   25.9716    3.6624 S.3       12 UNK        -0.2608 
     17 C17        28.0237   27.1716    4.2573 C.3       12 UNK        -0.0989 
     18 CA         28.3149   28.6183    3.7885 C.3       5 UNK         0.0716 
     19 N          28.0124   28.7945    2.3643 N.am      5 UNK        -0.4135 
     20 C          28.0271   29.9199    1.6351 C.2       4 UNK         0.5031 
     21 O          28.2788   31.0414    2.0866 O.2       4 UNK        -0.5229 
     22 CA         27.7258   29.7621    0.1286 C.3       4 UNK         0.0329 
     23 CB         27.8283   31.0982   -0.6320 C.3       4 UNK        -0.2001 
     24 N          28.6082   28.7934   -0.5298 N.am      4 UNK        -0.4303 
     25 C          28.5556   27.4620   -0.3995 C.2       3 UNK         0.5044 
     26 O          27.7342   26.8799    0.3136 O.2       3 UNK        -0.5152 
     27 CA         29.6448   26.6755   -1.1497 C.3       3 UNK         0.0319 
     28 CB         30.9974   26.8392   -0.4390 C.3       3 UNK        -0.2001 
     29 N          29.3439   25.2463   -1.2629 N.am      3 UNK        -0.4354 
     30 C          28.3369   24.7291   -1.9847 C.2       2 UNK         0.4964 
     31 O          27.5962   25.4080   -2.6984 O.2       2 UNK        -0.5047 
     32 CA         28.1185   23.2027   -1.9391 C.3       2 UNK         0.0288 
     33 CB         28.4660   22.5656   -3.2958 C.3       2 UNK        -0.2113 
     34 N          28.8891   22.5264   -0.8943 N.am      2 UNK        -0.4145 
     35 C          28.6081   22.5478    0.4168 C.2       1 UNK         0.5006 
     36 O          27.5984   23.0740    0.8862 O.2       1 UNK        -0.5103 
     37 C          27.5869   29.6421    4.6798 C.2       5 UNK         0.5055 
     38 O          26.3786   29.5198    4.8889 O.2       5 UNK        -0.5220 
     39 N          28.3504   30.6322    5.1623 N.am      6 UNK        -0.4450 
     40 CA         27.9615   31.7588    6.0208 C.3       6 UNK         0.0367 
     41 CB         27.3495   31.2706    7.3505 C.3       6 UNK        -0.1929 
     42 C          27.0753   32.8161    5.3325 C.2       6 UNK         0.5070 
     43 O          26.7367   33.8143    5.9700 O.2       6 UNK        -0.5237 
     44 N          26.7387   32.6140    4.0531 N.am      7 UNK        -0.4739 
     45 CA         26.0276   33.5766    3.2146 C.3       7 UNK         0.0276 
     46 CB         25.1253   32.8262    2.2219 C.3       7 UNK        -0.1927 
     47 C          27.0178   34.4913    2.4805 C.2       7 UNK         0.5013 
     48 O          26.7647   35.6928    2.3827 O.2       7 UNK        -0.5193 
     49 N          28.1295   33.9170    1.9994 N.am      8 UNK        -0.4253 
     50 CA         29.2046   34.6413    1.3160 C.3       8 UNK         0.0242 
     51 CB         28.8298   34.8739   -0.1611 C.3       8 UNK        -0.2000 
     52 C          30.5825   33.9662    1.4310 C.2       8 UNK         0.4948 
     53 O          31.5796   34.6271    1.1350 O.2       8 UNK        -0.5275 
     54 N          30.6469   32.6898    1.8327 N.am      9 UNK        -0.4246 
     55 CA         31.8773   31.9030    1.9201 C.3       9 UNK         0.0261 
     56 CB         32.2182   31.3368    0.5230 C.3       9 UNK        -0.1959 
     57 C          31.7036   30.7998    2.9757 C.2       9 UNK         0.5033 
     58 O          30.7742   30.8667    3.7830 O.2       9 UNK        -0.5390 
     59 N          32.5854   29.7961    2.9410 N.am      10 UNK        -0.4215 
     60 CA         32.4849   28.5326    3.6653 C.3       10 UNK         0.0240 
     61 CB         32.6799   28.7229    5.1825 C.3       10 UNK        -0.1982 
     62 C          33.5405   27.5833    3.0951 C.2       10 UNK         0.4970 
     63 O          34.6860   28.0017    2.9175 O.2       10 UNK        -0.4916 
     64 N          33.1411   26.3340    2.8313 N.am      11 UNK        -0.4279 
     65 CA         34.0046   25.2252    2.3861 C.3       11 UNK         0.1003 
     66 C          34.6494   25.3761    0.9712 C.2       11 UNK         0.5709 
     67 N          34.2897   26.3742    0.1746 N.am      11 UNK        -0.7358 
     68 O          35.4809   24.5627    0.5758 O.2       11 UNK        -0.4999 
     69 C69        35.0408   24.8219    3.4790 C.3       12 UNK        -0.0954 
     70 S70        35.1541   23.0150    3.7018 S.3       12 UNK        -0.2268 
     71 C71        34.2810   22.7845    5.2823 C.3       12 UNK         0.0203 
     72 H72        33.9016   22.2181    0.6667 H         1 UNK         0.0888 
     73 H73        33.1493   21.0436   -0.4175 H         1 UNK         0.0888 
     74 H74        33.4752   22.6834   -0.9822 H         1 UNK         0.0888 
     75 H75        31.2215   20.6424    0.7570 H         1 UNK         0.3017 
     76 H76        29.7845   22.5747    2.1786 H         1 UNK         0.0873 
     77 H77        28.1128   20.8278    2.5673 H         1 UNK         0.0745 
     78 H78        28.6446   19.9207    1.1783 H         1 UNK         0.0745 
     79 H79        30.2631   19.6239    5.3995 H         1 UNK         0.0705 
     80 H80        28.8408   20.4660    4.8463 H         1 UNK         0.0705 
     81 H81        32.5932   20.6949    4.8508 H         1 UNK         0.1334 
     82 H82        32.6102   24.9499    5.3864 H         1 UNK         0.1417 
     83 H83        28.8993   22.8729    4.8388 H         1 UNK         0.1562 
     84 H84        30.5306   26.1278    5.7110 H         1 UNK         0.0748 
     85 H85        29.0774   25.1867    5.9427 H         1 UNK         0.0748 
     86 H86        27.9846   27.1246    5.3475 H         1 UNK         0.0940 
     87 H87        27.0368   26.8503    3.9186 H         1 UNK         0.0940 
     88 H88        29.3831   28.7847    3.9067 H         1 UNK         0.0703 
     89 H89        27.8101   27.9370    1.8556 H         1 UNK         0.3081 
     90 H90        26.6969   29.4061    0.0442 H         1 UNK         0.0719 
     91 H91        28.8389   31.5062   -0.5891 H         1 UNK         0.0809 
     92 H92        27.5593   30.9792   -1.6817 H         1 UNK         0.0809 
     93 H93        27.1555   31.8474   -0.2151 H         1 UNK         0.0809 
     94 H94        29.3317   29.1851   -1.1152 H         1 UNK         0.2990 
     95 H95        29.7263   27.0822   -2.1598 H         1 UNK         0.0690 
     96 H96        31.7791   26.2939   -0.9675 H         1 UNK         0.0788 
     97 H97        30.9597   26.4621    0.5843 H         1 UNK         0.0788 
     98 H98        31.3043   27.8846   -0.3937 H         1 UNK         0.0788 
     99 H99        29.9108   24.6269   -0.6938 H         1 UNK         0.2993 
    100 H100       27.0566   23.0375   -1.7441 H         1 UNK         0.0949 
    101 H101       29.5189   22.7005   -3.5471 H         1 UNK         0.0767 
    102 H102       28.2528   21.4964   -3.2989 H         1 UNK         0.0767 
    103 H103       27.8794   23.0122   -4.1000 H         1 UNK         0.0767 
    104 H104       29.7415   22.0692   -1.1834 H         1 UNK         0.3013 
    105 H105       29.3059   30.6846    4.8014 H         1 UNK         0.3121 
    106 H106       28.8945   32.2711    6.2607 H         1 UNK         0.0774 
    107 H107       27.2105   32.1012    8.0435 H         1 UNK         0.0815 
    108 H108       26.3731   30.8082    7.2043 H         1 UNK         0.0815 
    109 H109       27.9963   30.5447    7.8430 H         1 UNK         0.0815 
    110 H110       27.1002   31.7870    3.5917 H         1 UNK         0.2987 
    111 H111       25.3890   34.2076    3.8372 H         1 UNK         0.0949 
    112 H112       24.6063   33.5226    1.5619 H         1 UNK         0.0806 
    113 H113       25.6911   32.1391    1.5942 H         1 UNK         0.0806 
    114 H114       24.3641   32.2467    2.7445 H         1 UNK         0.0806 
    115 H115       28.2310   32.9112    2.0989 H         1 UNK         0.3010 
    116 H116       29.3158   35.6163    1.7958 H         1 UNK         0.0829 
    117 H117       27.9154   35.4598   -0.2538 H         1 UNK         0.0813 
    118 H118       29.6150   35.4221   -0.6835 H         1 UNK         0.0813 
    119 H119       28.6805   33.9346   -0.6923 H         1 UNK         0.0813 
    120 H120       29.8139   32.1792    2.1123 H         1 UNK         0.3038 
    121 H121       32.6930   32.5439    2.2609 H         1 UNK         0.0769 
    122 H122       31.4692   30.6173    0.1897 H         1 UNK         0.0811 
    123 H123       33.1875   30.8380    0.5122 H         1 UNK         0.0811 
    124 H124       32.2694   32.1288   -0.2244 H         1 UNK         0.0811 
    125 H125       33.3601   29.8396    2.2911 H         1 UNK         0.3204 
    126 H126       31.4985   28.1074    3.4784 H         1 UNK         0.0748 
    127 H127       32.6809   27.7629    5.7001 H         1 UNK         0.0771 
    128 H128       33.6270   29.2158    5.4055 H         1 UNK         0.0771 
    129 H129       31.8809   29.3203    5.6210 H         1 UNK         0.0771 
    130 H130       32.1703   26.0886    2.9653 H         1 UNK         0.2980 
    131 H131       33.3019   24.4003    2.2729 H         1 UNK         0.0545 
    132 H132       33.6165   27.0538    0.4822 H         1 UNK         0.3459 
    133 H133       34.7131   26.4518   -0.7359 H         1 UNK         0.3459 
    134 H134       34.7894   25.2691    4.4410 H         1 UNK         0.0616 
    135 H135       36.0348   25.2090    3.2472 H         1 UNK         0.0616 
    136 H136       34.6065   23.5355    6.0037 H         1 UNK         0.0634 
    137 H137       34.5799   21.8224    5.7010 H         1 UNK         0.0634 
@<TRIPOS>BOND
     1    1    2 1    
     2    1   72 1    
     3    1   73 1    
     4    1   74 1    
     5    2    3 2    
     6    2    4 am   BACKBONE|DICT|INTERRES
     7    4    5 1    
     8    4   75 1    
     9    5    6 1    
    10    5   35 1    
    11    5   76 1    
    12    6    7 1    
    13    6   77 1    
    14    6   78 1    
    15    7    8 1    
    16    8    9 1    
    17    8   79 1    
    18    8   80 1    
    19    9   10 ar   
    20    9   14 ar   
    21   10   11 ar   
    22   10   81 1    
    23   11   12 ar   
    24   11   71 1    
    25   12   13 ar   
    26   12   82 1    
    27   13   14 ar   
    28   13   15 1    
    29   14   83 1    
    30   15   16 1    
    31   15   84 1    
    32   15   85 1    
    33   16   17 1    
    34   17   18 1    
    35   17   86 1    
    36   17   87 1    
    37   18   19 1    
    38   18   37 1    
    39   18   88 1    
    40   19   20 am   BACKBONE|DICT|INTERRES
    41   19   89 1    
    42   20   21 2    
    43   20   22 1    
    44   22   23 1    
    45   22   24 1    
    46   22   90 1    
    47   23   91 1    
    48   23   92 1    
    49   23   93 1    
    50   24   25 am   BACKBONE|DICT|INTERRES
    51   24   94 1    
    52   25   26 2    
    53   25   27 1    
    54   27   28 1    
    55   27   29 1    
    56   27   95 1    
    57   28   96 1    
    58   28   97 1    
    59   28   98 1    
    60   29   30 am   BACKBONE|DICT|INTERRES
    61   29   99 1    
    62   30   31 2    
    63   30   32 1    
    64   32   33 1    
    65   32   34 1    
    66   32  100 1    
    67   33  101 1    
    68   33  102 1    
    69   33  103 1    
    70   34   35 am   BACKBONE|DICT|INTERRES
    71   34  104 1    
    72   35   36 2    
    73   37   38 2    
    74   37   39 am   BACKBONE|DICT|INTERRES
    75   39   40 1    
    76   39  105 1    
    77   40   41 1    
    78   40   42 1    
    79   40  106 1    
    80   41  107 1    
    81   41  108 1    
    82   41  109 1    
    83   42   43 2    
    84   42   44 am   BACKBONE|DICT|INTERRES
    85   44   45 1    
    86   44  110 1    
    87   45   46 1    
    88   45   47 1    
    89   45  111 1    
    90   46  112 1    
    91   46  113 1    
    92   46  114 1    
    93   47   48 2    
    94   47   49 am   BACKBONE|DICT|INTERRES
    95   49   50 1    
    96   49  115 1    
    97   50   51 1    
    98   50   52 1    
    99   50  116 1    
   100   51  117 1    
   101   51  118 1    
   102   51  119 1    
   103   52   53 2    
   104   52   54 am   BACKBONE|DICT|INTERRES
   105   54   55 1    
   106   54  120 1    
   107   55   56 1    
   108   55   57 1    
   109   55  121 1    
   110   56  122 1    
   111   56  123 1    
   112   56  124 1    
   113   57   58 2    
   114   57   59 am   BACKBONE|DICT|INTERRES
   115   59   60 1    
   116   59  125 1    
   117   60   61 1    
   118   60   62 1    
   119   60  126 1    
   120   61  127 1    
   121   61  128 1    
   122   61  129 1    
   123   62   63 2    
   124   62   64 am   BACKBONE|DICT|INTERRES
   125   64   65 1    
   126   64  130 1    
   127   65   66 1    
   128   65   69 1    
   129   65  131 1    
   130   66   67 am   BACKBONE|DICT|INTERRES
   131   66   68 2    
   132   67  132 1    
   133   67  133 1    
   134   69   70 1    
   135   69  134 1    
   136   69  135 1    
   137   70   71 1    
   138   71  136 1    
   139   71  137 1    
@<TRIPOS>SUBSTRUCTURE
     1 UNK         1 GROUP             0       ****    0 ROOT    
