@<TRIPOS>MOLECULE
3R136
137   139    1
SMALL
USER_CHARGES


@<TRIPOS>ATOM
      1 CA         26.8485   21.1618    0.8419 C.3       0 UNK        -0.1979 
      2 C          27.7245   21.7798   -0.2360 C.2       0 UNK         0.4864 
      3 O          27.2939   21.8718   -1.3866 O.2       0 UNK        -0.5359 
      4 N          28.9474   22.1962    0.1235 N.am      1 UNK        -0.4318 
      5 CA         29.9712   22.7551   -0.7700 C.3       1 UNK         0.0824 
      6 C6         31.3079   23.0185   -0.0330 C.3       12 UNK        -0.0944 
      7 S7         31.9917   21.4881    0.6898 S.3       12 UNK        -0.2672 
      8 C8         32.8604   22.1147    2.1690 C.3       12 UNK         0.0333 
      9 C9         31.9594   22.7867    3.2047 C.ar      12 UNK        -0.0807 
     10 C10        32.4405   23.8939    3.9103 C.ar      12 UNK        -0.0894 
     11 C11        31.6535   24.5207    4.8805 C.ar      12 UNK        -0.0804 
     12 C12        30.3689   24.0368    5.1437 C.ar      12 UNK        -0.0824 
     13 C13        29.8627   22.9489    4.4265 C.ar      12 UNK        -0.0762 
     14 C14        30.6708   22.3125    3.4792 C.ar      12 UNK        -0.0782 
     15 C15        28.4390   22.4656    4.6580 C.3       12 UNK         0.0230 
     16 S16        27.2601   23.3448    3.5786 S.3       12 UNK        -0.2608 
     17 C17        26.9049   24.8537    4.5381 C.3       12 UNK        -0.0989 
     18 CA         27.6601   26.0980    4.0122 C.3       5 UNK         0.0716 
     19 N          27.2768   26.4662    2.6469 N.am      5 UNK        -0.4135 
     20 C          27.8598   27.4428    1.9372 C.2       4 UNK         0.5031 
     21 O          28.8079   28.1071    2.3591 O.2       4 UNK        -0.5229 
     22 CA         27.2913   27.7319    0.5382 C.3       4 UNK         0.0329 
     23 CB         28.3201   28.4242   -0.3768 C.3       4 UNK        -0.2001 
     24 N          26.8406   26.5072   -0.1229 N.am      4 UNK        -0.4303 
     25 C          25.5702   26.2076   -0.4302 C.2       3 UNK         0.5044 
     26 O          24.6072   26.8738   -0.0470 O.2       3 UNK        -0.5152 
     27 CA         25.3297   24.9602   -1.3144 C.3       3 UNK         0.0319 
     28 CB         24.0406   25.0669   -2.1559 C.3       3 UNK        -0.2001 
     29 N          26.4762   24.6110   -2.1647 N.am      3 UNK        -0.4354 
     30 C          27.0917   25.3926   -3.0701 C.2       2 UNK         0.4964 
     31 O          26.6488   26.4783   -3.4479 O.2       2 UNK        -0.5047 
     32 CA         28.4547   24.9026   -3.6126 C.3       2 UNK         0.0288 
     33 CB         29.4180   26.0740   -3.9033 C.3       2 UNK        -0.2113 
     34 N          29.1158   23.9022   -2.7587 N.am      2 UNK        -0.4145 
     35 C          29.4558   24.0295   -1.4648 C.2       1 UNK         0.5006 
     36 O          29.3010   25.0593   -0.8047 O.2       1 UNK        -0.5103 
     37 C          27.4665   27.2844    4.9772 C.2       5 UNK         0.5055 
     38 O          26.3638   27.8302    5.0571 O.2       5 UNK        -0.5220 
     39 N          28.5486   27.6435    5.6791 N.am      6 UNK        -0.4450 
     40 CA         28.6814   28.7488    6.6337 C.3       6 UNK         0.0367 
     41 CB         27.6981   28.5989    7.8146 C.3       6 UNK        -0.1929 
     42 C          28.6337   30.1537    5.9984 C.2       6 UNK         0.5070 
     43 O          28.5467   31.1349    6.7388 O.2       6 UNK        -0.5237 
     44 N          28.7281   30.2568    4.6640 N.am      7 UNK        -0.4739 
     45 CA         28.8937   31.5312    3.9644 C.3       7 UNK         0.0276 
     46 CB         28.4267   31.3892    2.5074 C.3       7 UNK        -0.1927 
     47 C          30.3720   31.9336    4.0135 C.2       7 UNK         0.5013 
     48 O          31.2244   31.1192    3.6528 O.2       7 UNK        -0.5193 
     49 N          30.6582   33.1770    4.4221 N.am      8 UNK        -0.4253 
     50 CA         32.0164   33.7084    4.6090 C.3       8 UNK         0.0242 
     51 CB         31.9326   35.1429    5.1548 C.3       8 UNK        -0.2000 
     52 C          32.9045   33.6634    3.3517 C.2       8 UNK         0.4948 
     53 O          34.1195   33.5126    3.4774 O.2       8 UNK        -0.5275 
     54 N          32.2847   33.7526    2.1672 N.am      9 UNK        -0.4246 
     55 CA         32.9457   33.6193    0.8672 C.3       9 UNK         0.0261 
     56 CB         31.9762   34.0757   -0.2358 C.3       9 UNK        -0.1959 
     57 C          33.4628   32.1974    0.5700 C.2       9 UNK         0.5033 
     58 O          34.3705   32.0610   -0.2519 O.2       9 UNK        -0.5390 
     59 N          32.8823   31.1763    1.2160 N.am      10 UNK        -0.4215 
     60 CA         33.2436   29.7687    1.0462 C.3       10 UNK         0.0240 
     61 CB         31.9676   28.9438    0.7995 C.3       10 UNK        -0.1982 
     62 C          33.9980   29.2388    2.2728 C.2       10 UNK         0.4970 
     63 O          35.0463   28.6125    2.1127 O.2       10 UNK        -0.4916 
     64 N          33.4451   29.4849    3.4651 N.am      11 UNK        -0.4279 
     65 CA         33.9136   28.9390    4.7467 C.3       11 UNK         0.1003 
     66 C          34.8840   29.8747    5.5201 C.2       11 UNK         0.5709 
     67 N          35.1515   31.0938    5.0681 N.am      11 UNK        -0.7358 
     68 O          35.4243   29.4779    6.5499 O.2       11 UNK        -0.4999 
     69 C69        32.7162   28.5022    5.6331 C.3       12 UNK        -0.0954 
     70 S70        31.6682   27.2638    4.7985 S.3       12 UNK        -0.2268 
     71 C71        32.1887   25.7331    5.6247 C.3       12 UNK         0.0203 
     72 H72        27.4164   20.9309    1.7428 H         1 UNK         0.0888 
     73 H73        26.0418   21.8443    1.1075 H         1 UNK         0.0888 
     74 H74        26.4052   20.2348    0.4796 H         1 UNK         0.0888 
     75 H75        29.2238   22.1294    1.0912 H         1 UNK         0.3017 
     76 H76        30.1641   22.0044   -1.5395 H         1 UNK         0.0873 
     77 H77        32.0521   23.4268   -0.7195 H         1 UNK         0.0745 
     78 H78        31.1699   23.7675    0.7494 H         1 UNK         0.0745 
     79 H79        33.6381   22.8046    1.8373 H         1 UNK         0.0705 
     80 H80        33.3731   21.2803    2.6489 H         1 UNK         0.0705 
     81 H81        33.4327   24.2725    3.7048 H         1 UNK         0.1334 
     82 H82        29.7541   24.5235    5.8880 H         1 UNK         0.1417 
     83 H83        30.2899   21.4519    2.9477 H         1 UNK         0.1562 
     84 H84        28.1578   22.5774    5.7060 H         1 UNK         0.0748 
     85 H85        28.3732   21.3975    4.4450 H         1 UNK         0.0748 
     86 H86        27.1451   24.6710    5.5872 H         1 UNK         0.0940 
     87 H87        25.8270   25.0259    4.5106 H         1 UNK         0.0940 
     88 H88        28.7241   25.8600    3.9724 H         1 UNK         0.0703 
     89 H89        26.4974   25.9692    2.2440 H         1 UNK         0.3081 
     90 H90        26.4553   28.4197    0.6787 H         1 UNK         0.0719 
     91 H91        29.2240   27.8237   -0.4881 H         1 UNK         0.0809 
     92 H92        27.9111   28.5986   -1.3722 H         1 UNK         0.0809 
     93 H93        28.6186   29.3928    0.0234 H         1 UNK         0.0809 
     94 H94        27.5858   25.8908   -0.4390 H         1 UNK         0.2990 
     95 H95        25.2044   24.1249   -0.6240 H         1 UNK         0.0690 
     96 H96        23.8863   24.1725   -2.7595 H         1 UNK         0.0788 
     97 H97        24.0661   25.9253   -2.8277 H         1 UNK         0.0788 
     98 H98        23.1633   25.1798   -1.5178 H         1 UNK         0.0788 
     99 H99        26.8983   23.7085   -1.9596 H         1 UNK         0.2993 
    100 H100       28.2381   24.4052   -4.5593 H         1 UNK         0.0949 
    101 H101       29.0005   26.7516   -4.6492 H         1 UNK         0.0767 
    102 H102       29.6198   26.6624   -3.0072 H         1 UNK         0.0767 
    103 H103       30.3716   25.7169   -4.2920 H         1 UNK         0.0767 
    104 H104       29.2302   22.9913   -3.1828 H         1 UNK         0.3013 
    105 H105       29.4201   27.1731    5.4665 H         1 UNK         0.3121 
    106 H106       29.6884   28.6547    7.0430 H         1 UNK         0.0774 
    107 H107       27.9240   29.3162    8.6044 H         1 UNK         0.0815 
    108 H108       26.6660   28.7725    7.5094 H         1 UNK         0.0815 
    109 H109       27.7564   27.6047    8.2574 H         1 UNK         0.0815 
    110 H110       28.8450   29.4187    4.1042 H         1 UNK         0.2987 
    111 H111       28.2826   32.2954    4.4501 H         1 UNK         0.0949 
    112 H112       29.0722   30.7156    1.9433 H         1 UNK         0.0806 
    113 H113       27.4086   31.0039    2.4499 H         1 UNK         0.0806 
    114 H114       28.4407   32.3531    1.9975 H         1 UNK         0.0806 
    115 H115       29.8978   33.7845    4.6928 H         1 UNK         0.3010 
    116 H116       32.5034   33.0854    5.3627 H         1 UNK         0.0829 
    117 H117       32.9286   35.5543    5.3258 H         1 UNK         0.0813 
    118 H118       31.4194   35.8102    4.4612 H         1 UNK         0.0813 
    119 H119       31.4043   35.1759    6.1079 H         1 UNK         0.0813 
    120 H120       31.2837   33.8836    2.1609 H         1 UNK         0.3038 
    121 H121       33.8100   34.2870    0.8604 H         1 UNK         0.0769 
    122 H122       32.4484   34.0197   -1.2178 H         1 UNK         0.0811 
    123 H123       31.6638   35.1097   -0.0883 H         1 UNK         0.0811 
    124 H124       31.0807   33.4538   -0.2698 H         1 UNK         0.0811 
    125 H125       32.1808   31.3764    1.9217 H         1 UNK         0.3204 
    126 H126       33.8936   29.6420    0.1779 H         1 UNK         0.0748 
    127 H127       32.2001   27.8843    0.6837 H         1 UNK         0.0771 
    128 H128       31.2601   29.0313    1.6254 H         1 UNK         0.0771 
    129 H129       31.4585   29.2655   -0.1089 H         1 UNK         0.0771 
    130 H130       32.5811   30.0227    3.5147 H         1 UNK         0.2980 
    131 H131       34.4955   28.0384    4.5419 H         1 UNK         0.0545 
    132 H132       34.7135   31.4559    4.2335 H         1 UNK         0.3459 
    133 H133       35.7909   31.6761    5.5843 H         1 UNK         0.3459 
    134 H134       33.0598   28.0937    6.5851 H         1 UNK         0.0616 
    135 H135       32.0924   29.3641    5.8773 H         1 UNK         0.0616 
    136 H136       31.8325   25.7352    6.6560 H         1 UNK         0.0634 
    137 H137       33.2784   25.6963    5.6695 H         1 UNK         0.0634 
@<TRIPOS>BOND
     1    1    2 1    
     2    1   72 1    
     3    1   73 1    
     4    1   74 1    
     5    2    3 2    
     6    2    4 am   BACKBONE|DICT|INTERRES
     7    4    5 1    
     8    4   75 1    
     9    5    6 1    
    10    5   35 1    
    11    5   76 1    
    12    6    7 1    
    13    6   77 1    
    14    6   78 1    
    15    7    8 1    
    16    8    9 1    
    17    8   79 1    
    18    8   80 1    
    19    9   10 ar   
    20    9   14 ar   
    21   10   11 ar   
    22   10   81 1    
    23   11   12 ar   
    24   11   71 1    
    25   12   13 ar   
    26   12   82 1    
    27   13   14 ar   
    28   13   15 1    
    29   14   83 1    
    30   15   16 1    
    31   15   84 1    
    32   15   85 1    
    33   16   17 1    
    34   17   18 1    
    35   17   86 1    
    36   17   87 1    
    37   18   19 1    
    38   18   37 1    
    39   18   88 1    
    40   19   20 am   BACKBONE|DICT|INTERRES
    41   19   89 1    
    42   20   21 2    
    43   20   22 1    
    44   22   23 1    
    45   22   24 1    
    46   22   90 1    
    47   23   91 1    
    48   23   92 1    
    49   23   93 1    
    50   24   25 am   BACKBONE|DICT|INTERRES
    51   24   94 1    
    52   25   26 2    
    53   25   27 1    
    54   27   28 1    
    55   27   29 1    
    56   27   95 1    
    57   28   96 1    
    58   28   97 1    
    59   28   98 1    
    60   29   30 am   BACKBONE|DICT|INTERRES
    61   29   99 1    
    62   30   31 2    
    63   30   32 1    
    64   32   33 1    
    65   32   34 1    
    66   32  100 1    
    67   33  101 1    
    68   33  102 1    
    69   33  103 1    
    70   34   35 am   BACKBONE|DICT|INTERRES
    71   34  104 1    
    72   35   36 2    
    73   37   38 2    
    74   37   39 am   BACKBONE|DICT|INTERRES
    75   39   40 1    
    76   39  105 1    
    77   40   41 1    
    78   40   42 1    
    79   40  106 1    
    80   41  107 1    
    81   41  108 1    
    82   41  109 1    
    83   42   43 2    
    84   42   44 am   BACKBONE|DICT|INTERRES
    85   44   45 1    
    86   44  110 1    
    87   45   46 1    
    88   45   47 1    
    89   45  111 1    
    90   46  112 1    
    91   46  113 1    
    92   46  114 1    
    93   47   48 2    
    94   47   49 am   BACKBONE|DICT|INTERRES
    95   49   50 1    
    96   49  115 1    
    97   50   51 1    
    98   50   52 1    
    99   50  116 1    
   100   51  117 1    
   101   51  118 1    
   102   51  119 1    
   103   52   53 2    
   104   52   54 am   BACKBONE|DICT|INTERRES
   105   54   55 1    
   106   54  120 1    
   107   55   56 1    
   108   55   57 1    
   109   55  121 1    
   110   56  122 1    
   111   56  123 1    
   112   56  124 1    
   113   57   58 2    
   114   57   59 am   BACKBONE|DICT|INTERRES
   115   59   60 1    
   116   59  125 1    
   117   60   61 1    
   118   60   62 1    
   119   60  126 1    
   120   61  127 1    
   121   61  128 1    
   122   61  129 1    
   123   62   63 2    
   124   62   64 am   BACKBONE|DICT|INTERRES
   125   64   65 1    
   126   64  130 1    
   127   65   66 1    
   128   65   69 1    
   129   65  131 1    
   130   66   67 am   BACKBONE|DICT|INTERRES
   131   66   68 2    
   132   67  132 1    
   133   67  133 1    
   134   69   70 1    
   135   69  134 1    
   136   69  135 1    
   137   70   71 1    
   138   71  136 1    
   139   71  137 1    
@<TRIPOS>SUBSTRUCTURE
     1 UNK         1 GROUP             0       ****    0 ROOT    
