@<TRIPOS>MOLECULE
3R136
137   139    1
SMALL
USER_CHARGES


@<TRIPOS>ATOM
      1 CA         26.2089   21.4231    1.5025 C.3       0 UNK        -0.1979 
      2 C          26.7734   22.8141    1.2639 C.2       0 UNK         0.4864 
      3 O          26.0639   23.6849    0.7601 O.2       0 UNK        -0.5359 
      4 N          28.0389   23.0461    1.6385 N.am      1 UNK        -0.4318 
      5 CA         28.7923   24.2921    1.4191 C.3       1 UNK         0.0824 
      6 C6         30.2765   24.1344    1.8213 C.3       12 UNK        -0.0944 
      7 S7         31.1020   22.8717    0.7909 S.3       12 UNK        -0.2672 
      8 C8         32.8682   23.2401    1.0538 C.3       12 UNK         0.0333 
      9 C9         33.2219   24.6849    0.7274 C.ar      12 UNK        -0.0807 
     10 C10        33.7700   25.5076    1.7143 C.ar      12 UNK        -0.0894 
     11 C11        34.0652   26.8474    1.4496 C.ar      12 UNK        -0.0804 
     12 C12        33.7988   27.3631    0.1742 C.ar      12 UNK        -0.0824 
     13 C13        33.2350   26.5542   -0.8184 C.ar      12 UNK        -0.0762 
     14 C14        32.9672   25.2110   -0.5420 C.ar      12 UNK        -0.0782 
     15 C15        32.8915   27.1362   -2.1822 C.3       12 UNK         0.0230 
     16 S16        31.4931   28.3022   -2.0949 S.3       12 UNK        -0.2608 
     17 C17        30.1217   27.2453   -1.5096 C.3       12 UNK        -0.0989 
     18 CA         28.7359   27.7276   -2.0178 C.3       5 UNK         0.0716 
     19 N          27.7366   26.6564   -1.9488 N.am      5 UNK        -0.4135 
     20 C          26.6428   26.5972   -2.7204 C.2       4 UNK         0.5031 
     21 O          26.4053   27.3752   -3.6450 O.2       4 UNK        -0.5229 
     22 CA         25.6325   25.4928   -2.3784 C.3       4 UNK         0.0329 
     23 CB         26.2256   24.0928   -2.6167 C.3       4 UNK        -0.2001 
     24 N          25.1447   25.5967   -1.0005 N.am      4 UNK        -0.4303 
     25 C          24.3199   26.5543   -0.5500 C.2       3 UNK         0.5044 
     26 O          23.9157   27.4900   -1.2398 O.2       3 UNK        -0.5152 
     27 CA         23.8527   26.4526    0.9094 C.3       3 UNK         0.0319 
     28 CB         22.7533   25.3862    1.0499 C.3       3 UNK        -0.2001 
     29 N          24.9565   26.1307    1.8168 N.am      3 UNK        -0.4354 
     30 C          25.3332   26.8842    2.8610 C.2       2 UNK         0.4964 
     31 O          24.7889   27.9446    3.1685 O.2       2 UNK        -0.5047 
     32 CA         26.5132   26.3948    3.7237 C.3       2 UNK         0.0288 
     33 CB         26.0150   25.8857    5.0861 C.3       2 UNK        -0.2113 
     34 N          27.3130   25.3452    3.0905 N.am      2 UNK        -0.4145 
     35 C          28.1769   25.5418    2.0862 C.2       1 UNK         0.5006 
     36 O          28.4771   26.6621    1.6648 O.2       1 UNK        -0.5103 
     37 C          28.2447   28.9884   -1.2684 C.2       5 UNK         0.5055 
     38 O          28.6247   30.0993   -1.6403 O.2       5 UNK        -0.5220 
     39 N          27.4113   28.7877   -0.2318 N.am      6 UNK        -0.4450 
     40 CA         26.9323   29.7854    0.7354 C.3       6 UNK         0.0367 
     41 CB         26.0510   30.8552    0.0572 C.3       6 UNK        -0.1929 
     42 C          28.0877   30.3758    1.5681 C.2       6 UNK         0.5070 
     43 O          28.0738   31.5613    1.9027 O.2       6 UNK        -0.5237 
     44 N          29.0789   29.5255    1.8593 N.am      7 UNK        -0.4739 
     45 CA         30.3530   29.8816    2.4825 C.3       7 UNK         0.0276 
     46 CB         31.4676   29.5059    1.4975 C.3       7 UNK        -0.1927 
     47 C          30.5604   29.1695    3.8275 C.2       7 UNK         0.5013 
     48 O          31.2646   29.7072    4.6863 O.2       7 UNK        -0.5193 
     49 N          29.9379   27.9899    3.9890 N.am      8 UNK        -0.4253 
     50 CA         29.9639   27.1282    5.1774 C.3       8 UNK         0.0242 
     51 CB         29.1376   27.7732    6.3154 C.3       8 UNK        -0.2000 
     52 C          31.4004   26.7391    5.5858 C.2       8 UNK         0.4948 
     53 O          32.2302   26.4861    4.7119 O.2       8 UNK        -0.5275 
     54 N          31.6702   26.6940    6.8963 N.am      9 UNK        -0.4246 
     55 CA         33.0087   26.4976    7.4585 C.3       9 UNK         0.0261 
     56 CB         32.8782   25.7946    8.8205 C.3       9 UNK        -0.1959 
     57 C          33.7875   27.8189    7.6099 C.2       9 UNK         0.5033 
     58 O          35.0025   27.7723    7.8063 O.2       9 UNK        -0.5390 
     59 N          33.0880   28.9629    7.5518 N.am      10 UNK        -0.4215 
     60 CA         33.6551   30.3023    7.7241 C.3       10 UNK         0.0240 
     61 CB         32.5231   31.3135    7.9728 C.3       10 UNK        -0.1982 
     62 C          34.5201   30.7288    6.5292 C.2       10 UNK         0.4970 
     63 O          35.6502   31.1764    6.7296 O.2       10 UNK        -0.4916 
     64 N          33.9769   30.5552    5.3181 N.am      11 UNK        -0.4279 
     65 CA         34.6128   30.8708    4.0331 C.3       11 UNK         0.1003 
     66 C          34.9095   32.3836    3.8044 C.2       11 UNK         0.5709 
     67 N          35.6574   32.7252    2.7634 N.am      11 UNK        -0.7358 
     68 O          34.4288   33.2574    4.5243 O.2       11 UNK        -0.4999 
     69 C69        35.8125   29.9190    3.7245 C.3       12 UNK        -0.0954 
     70 S70        35.6419   29.1148    2.0986 S.3       12 UNK        -0.2268 
     71 C71        34.5854   27.7135    2.5944 C.3       12 UNK         0.0203 
     72 H72        25.8989   20.9802    0.5566 H         1 UNK         0.0888 
     73 H73        26.9395   20.7602    1.9656 H         1 UNK         0.0888 
     74 H74        25.3377   21.4796    2.1543 H         1 UNK         0.0888 
     75 H75        28.5763   22.2895    2.0387 H         1 UNK         0.3017 
     76 H76        28.7597   24.4891    0.3460 H         1 UNK         0.0873 
     77 H77        30.3742   23.8581    2.8729 H         1 UNK         0.0745 
     78 H78        30.7992   25.0855    1.7043 H         1 UNK         0.0745 
     79 H79        33.4657   22.5769    0.4271 H         1 UNK         0.0705 
     80 H80        33.1230   23.0004    2.0874 H         1 UNK         0.0705 
     81 H81        33.9412   25.1121    2.7067 H         1 UNK         0.1334 
     82 H82        33.9872   28.4054   -0.0419 H         1 UNK         0.1417 
     83 H83        32.5276   24.5790   -1.3018 H         1 UNK         0.1562 
     84 H84        32.6578   26.3472   -2.8989 H         1 UNK         0.0748 
     85 H85        33.7629   27.6597   -2.5778 H         1 UNK         0.0748 
     86 H86        30.1543   27.1842   -0.4204 H         1 UNK         0.0940 
     87 H87        30.3100   26.2331   -1.8710 H         1 UNK         0.0940 
     88 H88        28.8484   28.0044   -3.0688 H         1 UNK         0.0703 
     89 H89        27.8565   25.9619   -1.2287 H         1 UNK         0.3081 
     90 H90        24.7769   25.6095   -3.0474 H         1 UNK         0.0719 
     91 H91        25.4723   23.3181   -2.4721 H         1 UNK         0.0809 
     92 H92        26.5976   23.9944   -3.6375 H         1 UNK         0.0809 
     93 H93        27.0550   23.8750   -1.9432 H         1 UNK         0.0809 
     94 H94        25.4188   24.8461   -0.3665 H         1 UNK         0.2990 
     95 H95        23.4145   27.4187    1.1689 H         1 UNK         0.0690 
     96 H96        21.9211   25.5898    0.3745 H         1 UNK         0.0788 
     97 H97        22.3510   25.3673    2.0629 H         1 UNK         0.0788 
     98 H98        23.1258   24.3869    0.8202 H         1 UNK         0.0788 
     99 H99        25.4520   25.2644    1.6249 H         1 UNK         0.2993 
    100 H100       27.1520   27.2624    3.8965 H         1 UNK         0.0949 
    101 H101       25.3603   25.0199    4.9787 H         1 UNK         0.0767 
    102 H102       26.8458   25.6016    5.7323 H         1 UNK         0.0767 
    103 H103       25.4505   26.6586    5.6098 H         1 UNK         0.0767 
    104 H104       27.1241   24.3949    3.3758 H         1 UNK         0.3013 
    105 H105       27.1911   27.8305    0.0013 H         1 UNK         0.3121 
    106 H106       26.2997   29.2494    1.4405 H         1 UNK         0.0774 
    107 H107       26.6281   31.4976   -0.6082 H         1 UNK         0.0815 
    108 H108       25.5811   31.4995    0.8010 H         1 UNK         0.0815 
    109 H109       25.2519   30.3968   -0.5256 H         1 UNK         0.0815 
    110 H110       28.9680   28.5601    1.5667 H         1 UNK         0.2987 
    111 H111       30.4020   30.9564    2.6702 H         1 UNK         0.0949 
    112 H112       31.4801   28.4330    1.3042 H         1 UNK         0.0806 
    113 H113       31.3395   30.0147    0.5418 H         1 UNK         0.0806 
    114 H114       32.4485   29.7804    1.8756 H         1 UNK         0.0806 
    115 H115       29.4338   27.6181    3.1941 H         1 UNK         0.3010 
    116 H116       29.4727   26.1966    4.8949 H         1 UNK         0.0829 
    117 H117       28.1473   28.0646    5.9663 H         1 UNK         0.0813 
    118 H118       28.9829   27.0800    7.1430 H         1 UNK         0.0813 
    119 H119       29.6158   28.6704    6.7105 H         1 UNK         0.0813 
    120 H120       30.9225   26.8747    7.5511 H         1 UNK         0.3038 
    121 H121       33.5891   25.8497    6.7978 H         1 UNK         0.0769 
    122 H122       32.3177   26.3971    9.5364 H         1 UNK         0.0811 
    123 H123       33.8599   25.6019    9.2557 H         1 UNK         0.0811 
    124 H124       32.3752   24.8323    8.7234 H         1 UNK         0.0811 
    125 H125       32.1025   28.9113    7.3423 H         1 UNK         0.3204 
    126 H126       34.2951   30.2878    8.6093 H         1 UNK         0.0748 
    127 H127       32.9222   32.3205    8.1032 H         1 UNK         0.0771 
    128 H128       31.8178   31.3480    7.1410 H         1 UNK         0.0771 
    129 H129       31.9642   31.0684    8.8762 H         1 UNK         0.0771 
    130 H130       33.0204   30.2161    5.2525 H         1 UNK         0.2980 
    131 H131       33.8136   30.6699    3.3249 H         1 UNK         0.0545 
    132 H132       36.0363   32.0209    2.1491 H         1 UNK         0.3459 
    133 H133       35.8428   33.7004    2.5887 H         1 UNK         0.3459 
    134 H134       36.7697   30.4416    3.7647 H         1 UNK         0.0616 
    135 H135       35.8964   29.1321    4.4763 H         1 UNK         0.0616 
    136 H136       35.1490   27.0971    3.2968 H         1 UNK         0.0634 
    137 H137       33.7255   28.0973    3.1442 H         1 UNK         0.0634 
@<TRIPOS>BOND
     1    1    2 1    
     2    1   72 1    
     3    1   73 1    
     4    1   74 1    
     5    2    3 2    
     6    2    4 am   BACKBONE|DICT|INTERRES
     7    4    5 1    
     8    4   75 1    
     9    5    6 1    
    10    5   35 1    
    11    5   76 1    
    12    6    7 1    
    13    6   77 1    
    14    6   78 1    
    15    7    8 1    
    16    8    9 1    
    17    8   79 1    
    18    8   80 1    
    19    9   10 ar   
    20    9   14 ar   
    21   10   11 ar   
    22   10   81 1    
    23   11   12 ar   
    24   11   71 1    
    25   12   13 ar   
    26   12   82 1    
    27   13   14 ar   
    28   13   15 1    
    29   14   83 1    
    30   15   16 1    
    31   15   84 1    
    32   15   85 1    
    33   16   17 1    
    34   17   18 1    
    35   17   86 1    
    36   17   87 1    
    37   18   19 1    
    38   18   37 1    
    39   18   88 1    
    40   19   20 am   BACKBONE|DICT|INTERRES
    41   19   89 1    
    42   20   21 2    
    43   20   22 1    
    44   22   23 1    
    45   22   24 1    
    46   22   90 1    
    47   23   91 1    
    48   23   92 1    
    49   23   93 1    
    50   24   25 am   BACKBONE|DICT|INTERRES
    51   24   94 1    
    52   25   26 2    
    53   25   27 1    
    54   27   28 1    
    55   27   29 1    
    56   27   95 1    
    57   28   96 1    
    58   28   97 1    
    59   28   98 1    
    60   29   30 am   BACKBONE|DICT|INTERRES
    61   29   99 1    
    62   30   31 2    
    63   30   32 1    
    64   32   33 1    
    65   32   34 1    
    66   32  100 1    
    67   33  101 1    
    68   33  102 1    
    69   33  103 1    
    70   34   35 am   BACKBONE|DICT|INTERRES
    71   34  104 1    
    72   35   36 2    
    73   37   38 2    
    74   37   39 am   BACKBONE|DICT|INTERRES
    75   39   40 1    
    76   39  105 1    
    77   40   41 1    
    78   40   42 1    
    79   40  106 1    
    80   41  107 1    
    81   41  108 1    
    82   41  109 1    
    83   42   43 2    
    84   42   44 am   BACKBONE|DICT|INTERRES
    85   44   45 1    
    86   44  110 1    
    87   45   46 1    
    88   45   47 1    
    89   45  111 1    
    90   46  112 1    
    91   46  113 1    
    92   46  114 1    
    93   47   48 2    
    94   47   49 am   BACKBONE|DICT|INTERRES
    95   49   50 1    
    96   49  115 1    
    97   50   51 1    
    98   50   52 1    
    99   50  116 1    
   100   51  117 1    
   101   51  118 1    
   102   51  119 1    
   103   52   53 2    
   104   52   54 am   BACKBONE|DICT|INTERRES
   105   54   55 1    
   106   54  120 1    
   107   55   56 1    
   108   55   57 1    
   109   55  121 1    
   110   56  122 1    
   111   56  123 1    
   112   56  124 1    
   113   57   58 2    
   114   57   59 am   BACKBONE|DICT|INTERRES
   115   59   60 1    
   116   59  125 1    
   117   60   61 1    
   118   60   62 1    
   119   60  126 1    
   120   61  127 1    
   121   61  128 1    
   122   61  129 1    
   123   62   63 2    
   124   62   64 am   BACKBONE|DICT|INTERRES
   125   64   65 1    
   126   64  130 1    
   127   65   66 1    
   128   65   69 1    
   129   65  131 1    
   130   66   67 am   BACKBONE|DICT|INTERRES
   131   66   68 2    
   132   67  132 1    
   133   67  133 1    
   134   69   70 1    
   135   69  134 1    
   136   69  135 1    
   137   70   71 1    
   138   71  136 1    
   139   71  137 1    
@<TRIPOS>SUBSTRUCTURE
     1 UNK         1 GROUP             0       ****    0 ROOT    
