@<TRIPOS>MOLECULE
3R136
137   139    1
SMALL
USER_CHARGES


@<TRIPOS>ATOM
      1 CA         28.7128   19.8076   -0.8142 C.3       0 UNK        -0.1979 
      2 C          28.7334   21.1298   -0.0634 C.2       0 UNK         0.4864 
      3 O          28.4259   22.1699   -0.6457 O.2       0 UNK        -0.5359 
      4 N          29.0788   21.1036    1.2309 N.am      1 UNK        -0.4318 
      5 CA         29.1883   22.2678    2.1214 C.3       1 UNK         0.0824 
      6 C6         30.1839   21.9768    3.2768 C.3       12 UNK        -0.0944 
      7 S7         30.9613   23.4772    3.9699 S.3       12 UNK        -0.2672 
      8 C8         32.5940   23.5007    3.1597 C.3       12 UNK         0.0333 
      9 C9         32.5851   24.2954    1.8597 C.ar      12 UNK        -0.0807 
     10 C10        33.0693   25.6072    1.8387 C.ar      12 UNK        -0.0894 
     11 C11        33.1294   26.3331    0.6431 C.ar      12 UNK        -0.0804 
     12 C12        32.6593   25.7369   -0.5303 C.ar      12 UNK        -0.0824 
     13 C13        32.1391   24.4383   -0.5234 C.ar      12 UNK        -0.0762 
     14 C14        32.1299   23.7147    0.6728 C.ar      12 UNK        -0.0782 
     15 C15        31.6188   23.7913   -1.8043 C.3       12 UNK         0.0230 
     16 S16        30.6199   24.9077   -2.8491 S.3       12 UNK        -0.2608 
     17 C17        29.1588   25.2189   -1.8021 C.3       12 UNK        -0.0989 
     18 CA         28.8015   26.7276   -1.7268 C.3       5 UNK         0.0716 
     19 N          27.3681   26.9293   -1.5123 N.am      5 UNK        -0.4135 
     20 C          26.6121   27.8457   -2.1326 C.2       4 UNK         0.5031 
     21 O          27.0268   28.5971   -3.0160 O.2       4 UNK        -0.5229 
     22 CA         25.1335   27.9432   -1.7063 C.3       4 UNK         0.0329 
     23 CB         24.2536   27.0778   -2.6228 C.3       4 UNK        -0.2001 
     24 N          24.9065   27.5519   -0.3131 N.am      4 UNK        -0.4303 
     25 C          25.3229   28.2527    0.7512 C.2       3 UNK         0.5044 
     26 O          25.8330   29.3695    0.6699 O.2       3 UNK        -0.5152 
     27 CA         25.1659   27.5949    2.1383 C.3       3 UNK         0.0319 
     28 CB         23.9552   28.1884    2.8765 C.3       3 UNK        -0.2001 
     29 N          25.0535   26.1273    2.1344 N.am      3 UNK        -0.4354 
     30 C          25.9628   25.2810    1.6322 C.2       2 UNK         0.4964 
     31 O          26.9710   25.6469    1.0231 O.2       2 UNK        -0.5047 
     32 CA         25.6724   23.7805    1.7727 C.3       2 UNK         0.0288 
     33 CB         24.6849   23.3237    0.6862 C.3       2 UNK        -0.2113 
     34 N          26.9188   23.0358    1.6133 N.am      2 UNK        -0.4145 
     35 C          27.8064   22.7926    2.5839 C.2       1 UNK         0.5006 
     36 O          27.5651   22.9694    3.7799 O.2       1 UNK        -0.5103 
     37 C          29.5838   27.4640   -0.6243 C.2       5 UNK         0.5055 
     38 O          30.4538   28.2827   -0.9280 O.2       5 UNK        -0.5220 
     39 N          29.2214   27.2035    0.6394 N.am      6 UNK        -0.4450 
     40 CA         29.7610   27.8368    1.8407 C.3       6 UNK         0.0367 
     41 CB         29.5320   26.8984    3.0359 C.3       6 UNK        -0.1929 
     42 C          29.1354   29.2255    2.0511 C.2       6 UNK         0.5070 
     43 O          28.4012   29.4414    3.0158 O.2       6 UNK        -0.5237 
     44 N          29.4253   30.1386    1.1168 N.am      7 UNK        -0.4739 
     45 CA         28.8701   31.4932    1.0471 C.3       7 UNK         0.0276 
     46 CB         29.1852   32.0814   -0.3381 C.3       7 UNK        -0.1927 
     47 C          29.3475   32.4432    2.1626 C.2       7 UNK         0.5013 
     48 O          28.7464   33.5045    2.3369 O.2       7 UNK        -0.5193 
     49 N          30.4059   32.0629    2.8871 N.am      8 UNK        -0.4253 
     50 CA         30.9413   32.7728    4.0427 C.3       8 UNK         0.0242 
     51 CB         32.2806   33.4263    3.6620 C.3       8 UNK        -0.2000 
     52 C          31.1430   31.7648    5.1760 C.2       8 UNK         0.4948 
     53 O          31.5441   30.6268    4.9134 O.2       8 UNK        -0.5275 
     54 N          30.9282   32.2163    6.4191 N.am      9 UNK        -0.4246 
     55 CA         31.0958   31.4239    7.6447 C.3       9 UNK         0.0261 
     56 CB         30.5577   32.2224    8.8433 C.3       9 UNK        -0.1959 
     57 C          32.5443   30.9702    7.9061 C.2       9 UNK         0.5033 
     58 O          32.7465   29.9662    8.5898 O.2       9 UNK        -0.5390 
     59 N          33.5198   31.6977    7.3428 N.am      10 UNK        -0.4215 
     60 CA         34.9355   31.3241    7.3221 C.3       10 UNK         0.0240 
     61 CB         35.7716   32.5315    6.8669 C.3       10 UNK        -0.1982 
     62 C          35.2211   30.1031    6.4271 C.2       10 UNK         0.4970 
     63 O          36.1741   29.3735    6.7035 O.2       10 UNK        -0.4916 
     64 N          34.4022   29.9038    5.3849 N.am      11 UNK        -0.4279 
     65 CA         34.4261   28.7207    4.5184 C.3       11 UNK         0.1003 
     66 C          33.5675   27.5821    5.1261 C.2       11 UNK         0.5709 
     67 N          32.3245   27.8595    5.5019 N.am      11 UNK        -0.7358 
     68 O          34.0339   26.4554    5.2717 O.2       11 UNK        -0.4999 
     69 C69        33.9932   29.0749    3.0669 C.3       12 UNK        -0.0954 
     70 S70        34.9541   28.1657    1.8108 S.3       12 UNK        -0.2268 
     71 C71        33.6796   27.7589    0.5678 C.3       12 UNK         0.0203 
     72 H72        29.0134   18.9734   -0.1807 H         1 UNK         0.0888 
     73 H73        27.7101   19.6059   -1.1897 H         1 UNK         0.0888 
     74 H74        29.3931   19.8506   -1.6643 H         1 UNK         0.0888 
     75 H75        29.2752   20.2115    1.6628 H         1 UNK         0.3017 
     76 H76        29.6058   23.0828    1.5281 H         1 UNK         0.0873 
     77 H77        29.6969   21.4276    4.0848 H         1 UNK         0.0745 
     78 H78        30.9809   21.3186    2.9285 H         1 UNK         0.0745 
     79 H79        32.9500   22.4857    2.9795 H         1 UNK         0.0705 
     80 H80        33.3085   23.9433    3.8558 H         1 UNK         0.0705 
     81 H81        33.4190   26.0508    2.7570 H         1 UNK         0.1334 
     82 H82        32.6885   26.2950   -1.4562 H         1 UNK         0.1417 
     83 H83        31.7682   22.6958    0.6819 H         1 UNK         0.1562 
     84 H84        31.0197   22.9086   -1.5748 H         1 UNK         0.0748 
     85 H85        32.4727   23.4419   -2.3859 H         1 UNK         0.0748 
     86 H86        29.2919   24.7809   -0.8106 H         1 UNK         0.0940 
     87 H87        28.3361   24.6607   -2.2524 H         1 UNK         0.0940 
     88 H88        29.0759   27.1872   -2.6790 H         1 UNK         0.0703 
     89 H89        26.9593   26.3968   -0.7514 H         1 UNK         0.3081 
     90 H90        24.8259   28.9849   -1.8208 H         1 UNK         0.0719 
     91 H91        24.3813   27.3632   -3.6681 H         1 UNK         0.0809 
     92 H92        23.1962   27.1947   -2.3845 H         1 UNK         0.0809 
     93 H93        24.5023   26.0187   -2.5419 H         1 UNK         0.0809 
     94 H94        24.4712   26.6555   -0.1526 H         1 UNK         0.2990 
     95 H95        26.0648   27.8452    2.7057 H         1 UNK         0.0690 
     96 H96        23.8966   27.8239    3.9023 H         1 UNK         0.0788 
     97 H97        23.0175   27.9431    2.3763 H         1 UNK         0.0788 
     98 H98        24.0233   29.2763    2.9267 H         1 UNK         0.0788 
     99 H99        24.2388   25.7429    2.5919 H         1 UNK         0.2993 
    100 H100       25.2465   23.5860    2.7594 H         1 UNK         0.0949 
    101 H101       23.7265   23.8355    0.7822 H         1 UNK         0.0767 
    102 H102       25.0654   23.5241   -0.3167 H         1 UNK         0.0767 
    103 H103       24.4870   22.2540    0.7589 H         1 UNK         0.0767 
    104 H104       27.2367   22.8807    0.6596 H         1 UNK         0.3013 
    105 H105       28.4462   26.5606    0.7967 H         1 UNK         0.3121 
    106 H106       30.8371   27.9679    1.7233 H         1 UNK         0.0774 
    107 H107       29.9487   27.3208    3.9505 H         1 UNK         0.0815 
    108 H108       28.4721   26.7120    3.2121 H         1 UNK         0.0815 
    109 H109       30.0173   25.9387    2.8692 H         1 UNK         0.0815 
    110 H110       29.9968   29.8351    0.3343 H         1 UNK         0.2987 
    111 H111       27.7851   31.4099    1.1446 H         1 UNK         0.0949 
    112 H112       28.7726   31.4613   -1.1346 H         1 UNK         0.0806 
    113 H113       28.7533   33.0771   -0.4490 H         1 UNK         0.0806 
    114 H114       30.2596   32.1709   -0.5029 H         1 UNK         0.0806 
    115 H115       30.7900   31.1407    2.7327 H         1 UNK         0.3010 
    116 H116       30.2433   33.5437    4.3766 H         1 UNK         0.0829 
    117 H117       32.1530   34.1379    2.8459 H         1 UNK         0.0813 
    118 H118       32.7056   33.9741    4.5039 H         1 UNK         0.0813 
    119 H119       33.0173   32.6862    3.3457 H         1 UNK         0.0813 
    120 H120       30.6117   33.1681    6.5415 H         1 UNK         0.3038 
    121 H121       30.4920   30.5201    7.5367 H         1 UNK         0.0769 
    122 H122       31.1071   33.1533    8.9893 H         1 UNK         0.0811 
    123 H123       30.6431   31.6462    9.7659 H         1 UNK         0.0811 
    124 H124       29.5035   32.4692    8.7159 H         1 UNK         0.0811 
    125 H125       33.2579   32.5269    6.8308 H         1 UNK         0.3204 
    126 H126       35.2333   31.0641    8.3402 H         1 UNK         0.0748 
    127 H127       36.8357   32.2906    6.8669 H         1 UNK         0.0771 
    128 H128       35.5096   32.8485    5.8564 H         1 UNK         0.0771 
    129 H129       35.6348   33.3834    7.5334 H         1 UNK         0.0771 
    130 H130       33.5917   30.4994    5.2750 H         1 UNK         0.2980 
    131 H131       35.4568   28.3617    4.4837 H         1 UNK         0.0545 
    132 H132       31.9460   28.7917    5.3648 H         1 UNK         0.3459 
    133 H133       31.7591   27.1355    5.9133 H         1 UNK         0.3459 
    134 H134       34.1639   30.1341    2.8677 H         1 UNK         0.0616 
    135 H135       32.9227   28.9224    2.9171 H         1 UNK         0.0616 
    136 H136       34.1372   27.9096   -0.4110 H         1 UNK         0.0634 
    137 H137       32.8575   28.4724    0.6218 H         1 UNK         0.0634 
@<TRIPOS>BOND
     1    1    2 1    
     2    1   72 1    
     3    1   73 1    
     4    1   74 1    
     5    2    3 2    
     6    2    4 am   BACKBONE|DICT|INTERRES
     7    4    5 1    
     8    4   75 1    
     9    5    6 1    
    10    5   35 1    
    11    5   76 1    
    12    6    7 1    
    13    6   77 1    
    14    6   78 1    
    15    7    8 1    
    16    8    9 1    
    17    8   79 1    
    18    8   80 1    
    19    9   10 ar   
    20    9   14 ar   
    21   10   11 ar   
    22   10   81 1    
    23   11   12 ar   
    24   11   71 1    
    25   12   13 ar   
    26   12   82 1    
    27   13   14 ar   
    28   13   15 1    
    29   14   83 1    
    30   15   16 1    
    31   15   84 1    
    32   15   85 1    
    33   16   17 1    
    34   17   18 1    
    35   17   86 1    
    36   17   87 1    
    37   18   19 1    
    38   18   37 1    
    39   18   88 1    
    40   19   20 am   BACKBONE|DICT|INTERRES
    41   19   89 1    
    42   20   21 2    
    43   20   22 1    
    44   22   23 1    
    45   22   24 1    
    46   22   90 1    
    47   23   91 1    
    48   23   92 1    
    49   23   93 1    
    50   24   25 am   BACKBONE|DICT|INTERRES
    51   24   94 1    
    52   25   26 2    
    53   25   27 1    
    54   27   28 1    
    55   27   29 1    
    56   27   95 1    
    57   28   96 1    
    58   28   97 1    
    59   28   98 1    
    60   29   30 am   BACKBONE|DICT|INTERRES
    61   29   99 1    
    62   30   31 2    
    63   30   32 1    
    64   32   33 1    
    65   32   34 1    
    66   32  100 1    
    67   33  101 1    
    68   33  102 1    
    69   33  103 1    
    70   34   35 am   BACKBONE|DICT|INTERRES
    71   34  104 1    
    72   35   36 2    
    73   37   38 2    
    74   37   39 am   BACKBONE|DICT|INTERRES
    75   39   40 1    
    76   39  105 1    
    77   40   41 1    
    78   40   42 1    
    79   40  106 1    
    80   41  107 1    
    81   41  108 1    
    82   41  109 1    
    83   42   43 2    
    84   42   44 am   BACKBONE|DICT|INTERRES
    85   44   45 1    
    86   44  110 1    
    87   45   46 1    
    88   45   47 1    
    89   45  111 1    
    90   46  112 1    
    91   46  113 1    
    92   46  114 1    
    93   47   48 2    
    94   47   49 am   BACKBONE|DICT|INTERRES
    95   49   50 1    
    96   49  115 1    
    97   50   51 1    
    98   50   52 1    
    99   50  116 1    
   100   51  117 1    
   101   51  118 1    
   102   51  119 1    
   103   52   53 2    
   104   52   54 am   BACKBONE|DICT|INTERRES
   105   54   55 1    
   106   54  120 1    
   107   55   56 1    
   108   55   57 1    
   109   55  121 1    
   110   56  122 1    
   111   56  123 1    
   112   56  124 1    
   113   57   58 2    
   114   57   59 am   BACKBONE|DICT|INTERRES
   115   59   60 1    
   116   59  125 1    
   117   60   61 1    
   118   60   62 1    
   119   60  126 1    
   120   61  127 1    
   121   61  128 1    
   122   61  129 1    
   123   62   63 2    
   124   62   64 am   BACKBONE|DICT|INTERRES
   125   64   65 1    
   126   64  130 1    
   127   65   66 1    
   128   65   69 1    
   129   65  131 1    
   130   66   67 am   BACKBONE|DICT|INTERRES
   131   66   68 2    
   132   67  132 1    
   133   67  133 1    
   134   69   70 1    
   135   69  134 1    
   136   69  135 1    
   137   70   71 1    
   138   71  136 1    
   139   71  137 1    
@<TRIPOS>SUBSTRUCTURE
     1 UNK         1 GROUP             0       ****    0 ROOT    
