@<TRIPOS>MOLECULE
3R136
137   139    1
SMALL
USER_CHARGES


@<TRIPOS>ATOM
      1 CA         30.0117   20.9526   -4.9064 C.3       0 UNK        -0.1979 
      2 C          29.9612   21.2660   -3.4176 C.2       0 UNK         0.4864 
      3 O          30.5488   20.5266   -2.6270 O.2       0 UNK        -0.5359 
      4 N          29.2772   22.3611   -3.0527 N.am      1 UNK        -0.4318 
      5 CA         29.0102   22.8535   -1.6939 C.3       1 UNK         0.0824 
      6 C6         30.2753   22.9537   -0.7998 C.3       12 UNK        -0.0944 
      7 S7         30.1553   24.3021    0.4144 S.3       12 UNK        -0.2672 
      8 C8         29.9154   23.3908    1.9663 C.3       12 UNK         0.0333 
      9 C9         29.9550   24.3544    3.1397 C.ar      12 UNK        -0.0807 
     10 C10        31.1728   24.6697    3.7497 C.ar      12 UNK        -0.0894 
     11 C11        31.2241   25.5877    4.8033 C.ar      12 UNK        -0.0804 
     12 C12        30.0430   26.2013    5.2328 C.ar      12 UNK        -0.0824 
     13 C13        28.8209   25.9086    4.6188 C.ar      12 UNK        -0.0762 
     14 C14        28.7803   24.9607    3.5912 C.ar      12 UNK        -0.0782 
     15 C15        27.5564   26.6335    5.0693 C.3       12 UNK         0.0230 
     16 S16        26.5487   27.2903    3.6937 S.3       12 UNK        -0.2608 
     17 C17        27.7588   28.2330    2.6988 C.3       12 UNK        -0.0989 
     18 CA         27.9455   27.6096    1.2902 C.3       5 UNK         0.0716 
     19 N          26.7099   27.6486    0.5125 N.am      5 UNK        -0.4135 
     20 C          26.3753   26.7750   -0.4411 C.2       4 UNK         0.5031 
     21 O          27.0603   25.8026   -0.7731 O.2       4 UNK        -0.5229 
     22 CA         24.9969   26.9804   -1.0883 C.3       4 UNK         0.0329 
     23 CB         25.0582   26.8158   -2.6168 C.3       4 UNK        -0.2001 
     24 N          24.0893   25.9841   -0.5309 N.am      4 UNK        -0.4303 
     25 C          23.5453   26.0497    0.6934 C.2       3 UNK         0.5044 
     26 O          23.4973   27.0772    1.3700 O.2       3 UNK        -0.5152 
     27 CA         23.0105   24.7269    1.2759 C.3       3 UNK         0.0319 
     28 CB         21.5085   24.5730    0.9889 C.3       3 UNK        -0.2001 
     29 N          23.7319   23.5584    0.7555 N.am      3 UNK        -0.4354 
     30 C          25.0296   23.2986    0.9808 C.2       2 UNK         0.4964 
     31 O          25.7225   23.9242    1.7832 O.2       2 UNK        -0.5047 
     32 CA         25.6835   22.1943    0.1401 C.3       2 UNK         0.0288 
     33 CB         24.7423   21.5479   -0.9061 C.3       2 UNK        -0.2113 
     34 N          26.8626   22.7651   -0.5133 N.am      2 UNK        -0.4145 
     35 C          27.8753   22.0533   -1.0206 C.2       1 UNK         0.5006 
     36 O          27.9293   20.8220   -0.9689 O.2       1 UNK        -0.5103 
     37 C          29.0463   28.3258    0.4933 C.2       5 UNK         0.5055 
     38 O          29.0489   29.5576    0.4328 O.2       5 UNK        -0.5220 
     39 N          29.9485   27.5519   -0.1206 N.am      6 UNK        -0.4450 
     40 CA         31.1423   28.0625   -0.7921 C.3       6 UNK         0.0367 
     41 CB         31.7418   26.9635   -1.6845 C.3       6 UNK        -0.1929 
     42 C          32.1625   28.5374    0.2537 C.2       6 UNK         0.5070 
     43 O          32.4059   27.8202    1.2250 O.2       6 UNK        -0.5237 
     44 N          32.7303   29.7314    0.0316 N.am      7 UNK        -0.4739 
     45 CA         33.6698   30.4330    0.9190 C.3       7 UNK         0.0276 
     46 CB         35.0148   29.6800    1.0112 C.3       7 UNK        -0.1927 
     47 C          33.0701   30.7522    2.3044 C.2       7 UNK         0.5013 
     48 O          33.7759   30.6793    3.3121 O.2       7 UNK        -0.5193 
     49 N          31.7841   31.1390    2.3302 N.am      8 UNK        -0.4253 
     50 CA         31.0059   31.4571    3.5363 C.3       8 UNK         0.0242 
     51 CB         29.5970   31.9189    3.1329 C.3       8 UNK        -0.2000 
     52 C          31.6548   32.4950    4.4711 C.2       8 UNK         0.4948 
     53 O          31.5136   32.3806    5.6882 O.2       8 UNK        -0.5275 
     54 N          32.3874   33.4577    3.8933 N.am      9 UNK        -0.4246 
     55 CA         33.1711   34.4622    4.6167 C.3       9 UNK         0.0261 
     56 CB         33.6563   35.5333    3.6263 C.3       9 UNK        -0.1959 
     57 C          34.3616   33.8788    5.4033 C.2       9 UNK         0.5033 
     58 O          34.7618   34.4790    6.4020 O.2       9 UNK        -0.5390 
     59 N          34.9053   32.7380    4.9543 N.am      10 UNK        -0.4215 
     60 CA         35.9555   31.9952    5.6520 C.3       10 UNK         0.0240 
     61 CB         36.8531   31.2733    4.6325 C.3       10 UNK        -0.1982 
     62 C          35.3507   30.9974    6.6506 C.2       10 UNK         0.4970 
     63 O          35.8888   30.8526    7.7491 O.2       10 UNK        -0.4916 
     64 N          34.2506   30.3370    6.2609 N.am      11 UNK        -0.4279 
     65 CA         33.4907   29.4091    7.1137 C.3       11 UNK         0.1003 
     66 C          32.8377   30.0886    8.3498 C.2       11 UNK         0.5709 
     67 N          32.2760   31.2835    8.2169 N.am      11 UNK        -0.7358 
     68 O          32.8455   29.5243    9.4413 O.2       11 UNK        -0.4999 
     69 C69        32.4309   28.6149    6.3099 C.3       12 UNK        -0.0954 
     70 S70        33.1753   27.5593    5.0201 S.3       12 UNK        -0.2268 
     71 C71        32.5553   25.9068    5.4739 C.3       12 UNK         0.0203 
     72 H72        31.0453   20.9355   -5.2513 H         1 UNK         0.0888 
     73 H73        29.5723   19.9739   -5.0981 H         1 UNK         0.0888 
     74 H74        29.4695   21.6890   -5.4994 H         1 UNK         0.0888 
     75 H75        28.8244   22.8973   -3.7800 H         1 UNK         0.3017 
     76 H76        28.6408   23.8672   -1.8598 H         1 UNK         0.0873 
     77 H77        30.4999   22.0061   -0.3061 H         1 UNK         0.0745 
     78 H78        31.1476   23.1780   -1.4156 H         1 UNK         0.0745 
     79 H79        28.9614   22.8615    1.9367 H         1 UNK         0.0705 
     80 H80        30.6940   22.6342    2.0754 H         1 UNK         0.0705 
     81 H81        32.0832   24.2062    3.3947 H         1 UNK         0.1334 
     82 H82        30.0759   26.9194    6.0390 H         1 UNK         0.1417 
     83 H83        27.8382   24.7273    3.1129 H         1 UNK         0.1562 
     84 H84        27.8052   27.4632    5.7329 H         1 UNK         0.0748 
     85 H85        26.9455   25.9443    5.6536 H         1 UNK         0.0748 
     86 H86        28.7128   28.2809    3.2277 H         1 UNK         0.0940 
     87 H87        27.4073   29.2636    2.6233 H         1 UNK         0.0940 
     88 H88        28.2440   26.5682    1.4218 H         1 UNK         0.0703 
     89 H89        26.0682   28.3936    0.7408 H         1 UNK         0.3081 
     90 H90        24.6267   27.9831   -0.8633 H         1 UNK         0.0719 
     91 H91        25.7437   27.5408   -3.0574 H         1 UNK         0.0809 
     92 H92        25.4035   25.8229   -2.9085 H         1 UNK         0.0809 
     93 H93        24.0804   26.9763   -3.0713 H         1 UNK         0.0809 
     94 H94        24.0773   25.0899   -0.9975 H         1 UNK         0.2990 
     95 H95        23.1550   24.7599    2.3580 H         1 UNK         0.0690 
     96 H96        21.1059   23.6725    1.4532 H         1 UNK         0.0788 
     97 H97        21.3028   24.5215   -0.0810 H         1 UNK         0.0788 
     98 H98        20.9480   25.4197    1.3880 H         1 UNK         0.0788 
     99 H99        23.2352   22.9738    0.0983 H         1 UNK         0.2993 
    100 H100       26.0102   21.4235    0.8415 H         1 UNK         0.0949 
    101 H101       24.4059   22.2681   -1.6531 H         1 UNK         0.0767 
    102 H102       25.2401   20.7375   -1.4387 H         1 UNK         0.0767 
    103 H103       23.8618   21.1092   -0.4347 H         1 UNK         0.0767 
    104 H104       26.9154   23.7821   -0.5210 H         1 UNK         0.3013 
    105 H105       29.8952   26.5475    0.0008 H         1 UNK         0.3121 
    106 H106       30.8504   28.9019   -1.4272 H         1 UNK         0.0774 
    107 H107       32.0918   26.1129   -1.0981 H         1 UNK         0.0815 
    108 H108       31.0137   26.5955   -2.4076 H         1 UNK         0.0815 
    109 H109       32.5962   27.3429   -2.2462 H         1 UNK         0.0815 
    110 H110       32.4624   30.2364   -0.8028 H         1 UNK         0.2987 
    111 H111       33.8701   31.3985    0.4519 H         1 UNK         0.0949 
    112 H112       35.4183   29.4620    0.0226 H         1 UNK         0.0806 
    113 H113       35.7598   30.2757    1.5400 H         1 UNK         0.0806 
    114 H114       34.9149   28.7371    1.5501 H         1 UNK         0.0806 
    115 H115       31.2776   31.1483    1.4559 H         1 UNK         0.3010 
    116 H116       30.9064   30.5288    4.0996 H         1 UNK         0.0829 
    117 H117       29.6265   32.8190    2.5177 H         1 UNK         0.0813 
    118 H118       28.9923   32.1440    4.0128 H         1 UNK         0.0813 
    119 H119       29.0704   31.1474    2.5729 H         1 UNK         0.0813 
    120 H120       32.4401   33.4761    2.8852 H         1 UNK         0.3038 
    121 H121       32.5082   34.9415    5.3404 H         1 UNK         0.0769 
    122 H122       32.8195   36.0193    3.1242 H         1 UNK         0.0811 
    123 H123       34.3100   35.1112    2.8619 H         1 UNK         0.0811 
    124 H124       34.2193   36.3134    4.1410 H         1 UNK         0.0811 
    125 H125       34.4775   32.2637    4.1642 H         1 UNK         0.3204 
    126 H126       36.5831   32.6929    6.2110 H         1 UNK         0.0748 
    127 H127       36.3066   30.5169    4.0685 H         1 UNK         0.0771 
    128 H128       37.2872   31.9746    3.9197 H         1 UNK         0.0771 
    129 H129       37.6791   30.7677    5.1343 H         1 UNK         0.0771 
    130 H130       33.9081   30.4638    5.3148 H         1 UNK         0.2980 
    131 H131       34.2083   28.6856    7.5060 H         1 UNK         0.0545 
    132 H132       32.1807   31.7152    7.3007 H         1 UNK         0.3459 
    133 H133       31.8590   31.7231    9.0211 H         1 UNK         0.3459 
    134 H134       31.7207   29.2929    5.8373 H         1 UNK         0.0616 
    135 H135       31.8467   27.9917    6.9878 H         1 UNK         0.0616 
    136 H136       32.4621   25.8165    6.5569 H         1 UNK         0.0634 
    137 H137       33.3072   25.1734    5.1790 H         1 UNK         0.0634 
@<TRIPOS>BOND
     1    1    2 1    
     2    1   72 1    
     3    1   73 1    
     4    1   74 1    
     5    2    3 2    
     6    2    4 am   BACKBONE|DICT|INTERRES
     7    4    5 1    
     8    4   75 1    
     9    5    6 1    
    10    5   35 1    
    11    5   76 1    
    12    6    7 1    
    13    6   77 1    
    14    6   78 1    
    15    7    8 1    
    16    8    9 1    
    17    8   79 1    
    18    8   80 1    
    19    9   10 ar   
    20    9   14 ar   
    21   10   11 ar   
    22   10   81 1    
    23   11   12 ar   
    24   11   71 1    
    25   12   13 ar   
    26   12   82 1    
    27   13   14 ar   
    28   13   15 1    
    29   14   83 1    
    30   15   16 1    
    31   15   84 1    
    32   15   85 1    
    33   16   17 1    
    34   17   18 1    
    35   17   86 1    
    36   17   87 1    
    37   18   19 1    
    38   18   37 1    
    39   18   88 1    
    40   19   20 am   BACKBONE|DICT|INTERRES
    41   19   89 1    
    42   20   21 2    
    43   20   22 1    
    44   22   23 1    
    45   22   24 1    
    46   22   90 1    
    47   23   91 1    
    48   23   92 1    
    49   23   93 1    
    50   24   25 am   BACKBONE|DICT|INTERRES
    51   24   94 1    
    52   25   26 2    
    53   25   27 1    
    54   27   28 1    
    55   27   29 1    
    56   27   95 1    
    57   28   96 1    
    58   28   97 1    
    59   28   98 1    
    60   29   30 am   BACKBONE|DICT|INTERRES
    61   29   99 1    
    62   30   31 2    
    63   30   32 1    
    64   32   33 1    
    65   32   34 1    
    66   32  100 1    
    67   33  101 1    
    68   33  102 1    
    69   33  103 1    
    70   34   35 am   BACKBONE|DICT|INTERRES
    71   34  104 1    
    72   35   36 2    
    73   37   38 2    
    74   37   39 am   BACKBONE|DICT|INTERRES
    75   39   40 1    
    76   39  105 1    
    77   40   41 1    
    78   40   42 1    
    79   40  106 1    
    80   41  107 1    
    81   41  108 1    
    82   41  109 1    
    83   42   43 2    
    84   42   44 am   BACKBONE|DICT|INTERRES
    85   44   45 1    
    86   44  110 1    
    87   45   46 1    
    88   45   47 1    
    89   45  111 1    
    90   46  112 1    
    91   46  113 1    
    92   46  114 1    
    93   47   48 2    
    94   47   49 am   BACKBONE|DICT|INTERRES
    95   49   50 1    
    96   49  115 1    
    97   50   51 1    
    98   50   52 1    
    99   50  116 1    
   100   51  117 1    
   101   51  118 1    
   102   51  119 1    
   103   52   53 2    
   104   52   54 am   BACKBONE|DICT|INTERRES
   105   54   55 1    
   106   54  120 1    
   107   55   56 1    
   108   55   57 1    
   109   55  121 1    
   110   56  122 1    
   111   56  123 1    
   112   56  124 1    
   113   57   58 2    
   114   57   59 am   BACKBONE|DICT|INTERRES
   115   59   60 1    
   116   59  125 1    
   117   60   61 1    
   118   60   62 1    
   119   60  126 1    
   120   61  127 1    
   121   61  128 1    
   122   61  129 1    
   123   62   63 2    
   124   62   64 am   BACKBONE|DICT|INTERRES
   125   64   65 1    
   126   64  130 1    
   127   65   66 1    
   128   65   69 1    
   129   65  131 1    
   130   66   67 am   BACKBONE|DICT|INTERRES
   131   66   68 2    
   132   67  132 1    
   133   67  133 1    
   134   69   70 1    
   135   69  134 1    
   136   69  135 1    
   137   70   71 1    
   138   71  136 1    
   139   71  137 1    
@<TRIPOS>SUBSTRUCTURE
     1 UNK         1 GROUP             0       ****    0 ROOT    
