@<TRIPOS>MOLECULE
3R136
137   139    1
SMALL
USER_CHARGES


@<TRIPOS>ATOM
      1 CA         34.8403   21.4937    3.7750 C.3       0 UNK        -0.1979 
      2 C          33.6032   21.4076    2.8929 C.2       0 UNK         0.4864 
      3 O          33.5141   20.5038    2.0610 O.2       0 UNK        -0.5359 
      4 N          32.6586   22.3379    3.0869 N.am      1 UNK        -0.4318 
      5 CA         31.4235   22.5464    2.3255 C.3       1 UNK         0.0824 
      6 C6         30.5698   21.2627    2.1359 C.3       12 UNK        -0.0944 
      7 S7         28.7778   21.5918    2.0268 S.3       12 UNK        -0.2672 
      8 C8         28.2724   21.5901    3.7797 C.3       12 UNK         0.0333 
      9 C9         27.8758   22.9886    4.2270 C.ar      12 UNK        -0.0807 
     10 C10        28.8404   23.8786    4.7046 C.ar      12 UNK        -0.0894 
     11 C11        28.4958   25.1904    5.0357 C.ar      12 UNK        -0.0804 
     12 C12        27.1589   25.5926    4.9603 C.ar      12 UNK        -0.0824 
     13 C13        26.1764   24.6982    4.5212 C.ar      12 UNK        -0.0762 
     14 C14        26.5433   23.4027    4.1437 C.ar      12 UNK        -0.0782 
     15 C15        24.7159   25.1196    4.4538 C.3       12 UNK         0.0230 
     16 S16        24.2483   25.6840    2.7875 S.3       12 UNK        -0.2608 
     17 C17        24.9999   27.3452    2.7394 C.3       12 UNK        -0.0989 
     18 CA         26.2045   27.4320    1.7606 C.3       5 UNK         0.0716 
     19 N          25.8403   27.1422    0.3667 N.am      5 UNK        -0.4135 
     20 C          25.0222   27.8668   -0.4162 C.2       4 UNK         0.5031 
     21 O          24.4518   28.8945   -0.0463 O.2       4 UNK        -0.5229 
     22 CA         24.7646   27.3513   -1.8493 C.3       4 UNK         0.0329 
     23 CB         24.4914   28.4970   -2.8481 C.3       4 UNK        -0.2001 
     24 N          25.7981   26.4482   -2.3699 N.am      4 UNK        -0.4303 
     25 C          27.0919   26.7297   -2.5732 C.2       3 UNK         0.5044 
     26 O          27.6166   27.8221   -2.3484 O.2       3 UNK        -0.5152 
     27 CA         27.9456   25.5747   -3.1188 C.3       3 UNK         0.0319 
     28 CB         28.2499   25.7881   -4.6101 C.3       3 UNK        -0.2001 
     29 N          29.2025   25.4117   -2.3864 N.am      3 UNK        -0.4354 
     30 C          29.3090   25.1729   -1.0730 C.2       2 UNK         0.4964 
     31 O          28.3519   25.0930   -0.2964 O.2       2 UNK        -0.5047 
     32 CA         30.7334   25.0080   -0.5386 C.3       2 UNK         0.0288 
     33 CB         31.3416   26.3660   -0.1491 C.3       2 UNK        -0.2113 
     34 N          30.6946   24.1373    0.6290 N.am      2 UNK        -0.4145 
     35 C          31.6815   23.3267    1.0225 C.2       1 UNK         0.5006 
     36 O          32.7497   23.2111    0.4166 O.2       1 UNK        -0.5103 
     37 C          26.9390   28.7854    1.8644 C.2       5 UNK         0.5055 
     38 O          26.4471   29.7078    2.5203 O.2       5 UNK        -0.5220 
     39 N          28.0922   28.8946    1.1888 N.am      6 UNK        -0.4450 
     40 CA         28.9207   30.1035    1.0973 C.3       6 UNK         0.0367 
     41 CB         29.8963   29.9566   -0.0847 C.3       6 UNK        -0.1929 
     42 C          29.6469   30.4582    2.4137 C.2       6 UNK         0.5070 
     43 O          30.8726   30.5684    2.4371 O.2       6 UNK        -0.5237 
     44 N          28.8742   30.6676    3.4861 N.am      7 UNK        -0.4739 
     45 CA         29.3296   31.0053    4.8400 C.3       7 UNK         0.0276 
     46 CB         28.1311   30.9227    5.7986 C.3       7 UNK        -0.1927 
     47 C          30.0346   32.3706    4.9589 C.2       7 UNK         0.5013 
     48 O          30.6958   32.6198    5.9671 O.2       7 UNK        -0.5193 
     49 N          29.8910   33.2239    3.9353 N.am      8 UNK        -0.4253 
     50 CA         30.6427   34.4694    3.7678 C.3       8 UNK         0.0242 
     51 CB         29.9188   35.3549    2.7399 C.3       8 UNK        -0.2000 
     52 C          32.1075   34.2383    3.3434 C.2       8 UNK         0.4948 
     53 O          32.9260   35.1421    3.5203 O.2       8 UNK        -0.5275 
     54 N          32.4113   33.0561    2.7899 N.am      9 UNK        -0.4246 
     55 CA         33.7539   32.6006    2.4342 C.3       9 UNK         0.0261 
     56 CB         33.6987   31.9701    1.0273 C.3       9 UNK        -0.1959 
     57 C          34.2598   31.6166    3.5069 C.2       9 UNK         0.5033 
     58 O          33.7493   31.6085    4.6295 O.2       9 UNK        -0.5390 
     59 N          35.2659   30.8027    3.1569 N.am      10 UNK        -0.4215 
     60 CA         35.8338   29.7680    4.0293 C.3       10 UNK         0.0240 
     61 CB         37.1161   29.2082    3.3915 C.3       10 UNK        -0.1982 
     62 C          34.8499   28.6273    4.3529 C.2       10 UNK         0.4970 
     63 O          34.9218   28.0693    5.4485 O.2       10 UNK        -0.4916 
     64 N          33.9600   28.3096    3.4002 N.am      11 UNK        -0.4279 
     65 CA         32.9203   27.2716    3.5002 C.3       11 UNK         0.1003 
     66 C          33.4704   25.8218    3.6826 C.2       11 UNK         0.5709 
     67 N          34.6689   25.5228    3.1928 N.am      11 UNK        -0.7358 
     68 O          32.8146   24.9520    4.2519 O.2       11 UNK        -0.4999 
     69 C69        31.7998   27.6681    4.5056 C.3       12 UNK        -0.0954 
     70 S70        30.1562   27.0857    3.9686 S.3       12 UNK        -0.2268 
     71 C71        29.5836   26.1739    5.4317 C.3       12 UNK         0.0203 
     72 H72        34.7608   22.2929    4.5124 H         1 UNK         0.0888 
     73 H73        34.9858   20.5551    4.3094 H         1 UNK         0.0888 
     74 H74        35.7240   21.6790    3.1646 H         1 UNK         0.0888 
     75 H75        32.8397   23.0844    3.7527 H         1 UNK         0.3017 
     76 H76        30.8629   23.2323    2.9535 H         1 UNK         0.0873 
     77 H77        30.8803   20.7205    1.2410 H         1 UNK         0.0745 
     78 H78        30.7341   20.5698    2.9620 H         1 UNK         0.0745 
     79 H79        29.0690   21.2048    4.4174 H         1 UNK         0.0705 
     80 H80        27.4316   20.9055    3.9014 H         1 UNK         0.0705 
     81 H81        29.8689   23.5635    4.7992 H         1 UNK         0.1334 
     82 H82        26.8898   26.6041    5.2310 H         1 UNK         0.1417 
     83 H83        25.7898   22.7179    3.7785 H         1 UNK         0.1562 
     84 H84        24.5027   25.8993    5.1868 H         1 UNK         0.0748 
     85 H85        24.0813   24.2745    4.7250 H         1 UNK         0.0748 
     86 H86        25.3059   27.6288    3.7473 H         1 UNK         0.0940 
     87 H87        24.2238   28.0607    2.4631 H         1 UNK         0.0940 
     88 H88        26.9278   26.6695    2.0563 H         1 UNK         0.0703 
     89 H89        26.2809   26.3238   -0.0325 H         1 UNK         0.3081 
     90 H90        23.8542   26.7543   -1.7839 H         1 UNK         0.0719 
     91 H91        24.2944   28.1134   -3.8491 H         1 UNK         0.0809 
     92 H92        25.3332   29.1865   -2.9123 H         1 UNK         0.0809 
     93 H93        23.6185   29.0787   -2.5500 H         1 UNK         0.0809 
     94 H94        25.4820   25.5107   -2.5779 H         1 UNK         0.2990 
     95 H95        27.3881   24.6420   -3.0131 H         1 UNK         0.0690 
     96 H96        28.7998   24.9455   -5.0292 H         1 UNK         0.0788 
     97 H97        28.8391   26.6908   -4.7754 H         1 UNK         0.0788 
     98 H98        27.3291   25.8908   -5.1861 H         1 UNK         0.0788 
     99 H99        30.0476   25.5014   -2.9310 H         1 UNK         0.2993 
    100 H100       31.3419   24.5443   -1.3185 H         1 UNK         0.0949 
    101 H101       30.7815   26.8353    0.6606 H         1 UNK         0.0767 
    102 H102       32.3754   26.2556    0.1786 H         1 UNK         0.0767 
    103 H103       31.3426   27.0539   -0.9955 H         1 UNK         0.0767 
    104 H104       29.8069   24.1313    1.1174 H         1 UNK         0.3013 
    105 H105       28.4169   28.0916    0.6697 H         1 UNK         0.3121 
    106 H106       28.2583   30.9409    0.8682 H         1 UNK         0.0774 
    107 H107       30.4441   30.8847   -0.2536 H         1 UNK         0.0815 
    108 H108       30.6352   29.1773    0.0972 H         1 UNK         0.0815 
    109 H109       29.3721   29.7176   -1.0105 H         1 UNK         0.0815 
    110 H110       27.8747   30.5180    3.3604 H         1 UNK         0.2987 
    111 H111       30.0568   30.2498    5.1405 H         1 UNK         0.0949 
    112 H112       27.6868   29.9272    5.7915 H         1 UNK         0.0806 
    113 H113       28.4348   31.1329    6.8251 H         1 UNK         0.0806 
    114 H114       27.3537   31.6400    5.5334 H         1 UNK         0.0806 
    115 H115       29.3032   32.9367    3.1667 H         1 UNK         0.3010 
    116 H116       30.6578   34.9953    4.7249 H         1 UNK         0.0829 
    117 H117       28.9001   35.5798    3.0561 H         1 UNK         0.0813 
    118 H118       30.4348   36.3080    2.6145 H         1 UNK         0.0813 
    119 H119       29.8707   34.8798    1.7591 H         1 UNK         0.0813 
    120 H120       31.6979   32.3337    2.7534 H         1 UNK         0.3038 
    121 H121       34.4462   33.4444    2.4083 H         1 UNK         0.0769 
    122 H122       33.2307   32.6473    0.3125 H         1 UNK         0.0811 
    123 H123       33.1281   31.0405    1.0206 H         1 UNK         0.0811 
    124 H124       34.6955   31.7514    0.6441 H         1 UNK         0.0811 
    125 H125       35.6535   30.8815    2.2278 H         1 UNK         0.3204 
    126 H126       36.1046   30.2418    4.9755 H         1 UNK         0.0748 
    127 H127       37.5697   28.4484    4.0300 H         1 UNK         0.0771 
    128 H128       36.9202   28.7456    2.4232 H         1 UNK         0.0771 
    129 H129       37.8611   29.9907    3.2458 H         1 UNK         0.0771 
    130 H130       33.9805   28.8261    2.5337 H         1 UNK         0.2980 
    131 H131       32.4733   27.2638    2.5064 H         1 UNK         0.0545 
    132 H132       35.0377   24.5939    3.3074 H         1 UNK         0.3459 
    133 H133       35.2152   26.2235    2.7190 H         1 UNK         0.3459 
    134 H134       32.0321   27.3226    5.5142 H         1 UNK         0.0616 
    135 H135       31.7326   28.7542    4.5749 H         1 UNK         0.0616 
    136 H136       29.2151   26.8769    6.1784 H         1 UNK         0.0634 
    137 H137       30.4193   25.6406    5.8859 H         1 UNK         0.0634 
@<TRIPOS>BOND
     1    1    2 1    
     2    1   72 1    
     3    1   73 1    
     4    1   74 1    
     5    2    3 2    
     6    2    4 am   BACKBONE|DICT|INTERRES
     7    4    5 1    
     8    4   75 1    
     9    5    6 1    
    10    5   35 1    
    11    5   76 1    
    12    6    7 1    
    13    6   77 1    
    14    6   78 1    
    15    7    8 1    
    16    8    9 1    
    17    8   79 1    
    18    8   80 1    
    19    9   10 ar   
    20    9   14 ar   
    21   10   11 ar   
    22   10   81 1    
    23   11   12 ar   
    24   11   71 1    
    25   12   13 ar   
    26   12   82 1    
    27   13   14 ar   
    28   13   15 1    
    29   14   83 1    
    30   15   16 1    
    31   15   84 1    
    32   15   85 1    
    33   16   17 1    
    34   17   18 1    
    35   17   86 1    
    36   17   87 1    
    37   18   19 1    
    38   18   37 1    
    39   18   88 1    
    40   19   20 am   BACKBONE|DICT|INTERRES
    41   19   89 1    
    42   20   21 2    
    43   20   22 1    
    44   22   23 1    
    45   22   24 1    
    46   22   90 1    
    47   23   91 1    
    48   23   92 1    
    49   23   93 1    
    50   24   25 am   BACKBONE|DICT|INTERRES
    51   24   94 1    
    52   25   26 2    
    53   25   27 1    
    54   27   28 1    
    55   27   29 1    
    56   27   95 1    
    57   28   96 1    
    58   28   97 1    
    59   28   98 1    
    60   29   30 am   BACKBONE|DICT|INTERRES
    61   29   99 1    
    62   30   31 2    
    63   30   32 1    
    64   32   33 1    
    65   32   34 1    
    66   32  100 1    
    67   33  101 1    
    68   33  102 1    
    69   33  103 1    
    70   34   35 am   BACKBONE|DICT|INTERRES
    71   34  104 1    
    72   35   36 2    
    73   37   38 2    
    74   37   39 am   BACKBONE|DICT|INTERRES
    75   39   40 1    
    76   39  105 1    
    77   40   41 1    
    78   40   42 1    
    79   40  106 1    
    80   41  107 1    
    81   41  108 1    
    82   41  109 1    
    83   42   43 2    
    84   42   44 am   BACKBONE|DICT|INTERRES
    85   44   45 1    
    86   44  110 1    
    87   45   46 1    
    88   45   47 1    
    89   45  111 1    
    90   46  112 1    
    91   46  113 1    
    92   46  114 1    
    93   47   48 2    
    94   47   49 am   BACKBONE|DICT|INTERRES
    95   49   50 1    
    96   49  115 1    
    97   50   51 1    
    98   50   52 1    
    99   50  116 1    
   100   51  117 1    
   101   51  118 1    
   102   51  119 1    
   103   52   53 2    
   104   52   54 am   BACKBONE|DICT|INTERRES
   105   54   55 1    
   106   54  120 1    
   107   55   56 1    
   108   55   57 1    
   109   55  121 1    
   110   56  122 1    
   111   56  123 1    
   112   56  124 1    
   113   57   58 2    
   114   57   59 am   BACKBONE|DICT|INTERRES
   115   59   60 1    
   116   59  125 1    
   117   60   61 1    
   118   60   62 1    
   119   60  126 1    
   120   61  127 1    
   121   61  128 1    
   122   61  129 1    
   123   62   63 2    
   124   62   64 am   BACKBONE|DICT|INTERRES
   125   64   65 1    
   126   64  130 1    
   127   65   66 1    
   128   65   69 1    
   129   65  131 1    
   130   66   67 am   BACKBONE|DICT|INTERRES
   131   66   68 2    
   132   67  132 1    
   133   67  133 1    
   134   69   70 1    
   135   69  134 1    
   136   69  135 1    
   137   70   71 1    
   138   71  136 1    
   139   71  137 1    
@<TRIPOS>SUBSTRUCTURE
     1 UNK         1 GROUP             0       ****    0 ROOT    
