@<TRIPOS>MOLECULE
3R136
137   139    1
SMALL
USER_CHARGES


@<TRIPOS>ATOM
      1 CA         26.9602   21.5854    1.8424 C.3       0 UNK        -0.1979 
      2 C          27.4814   21.2375    0.4560 C.2       0 UNK         0.4864 
      3 O          27.6503   20.0582    0.1420 O.2       0 UNK        -0.5359 
      4 N          27.7400   22.2554   -0.3689 N.am      1 UNK        -0.4318 
      5 CA         28.2735   22.1263   -1.7263 C.3       1 UNK         0.0824 
      6 C6         29.8104   21.8770   -1.7732 C.3       12 UNK        -0.0944 
      7 S7         30.7841   22.9923   -0.6953 S.3       12 UNK        -0.2672 
      8 C8         31.4987   21.8062    0.4881 C.3       12 UNK         0.0333 
      9 C9         31.6353   22.4078    1.8776 C.ar      12 UNK        -0.0807 
     10 C10        32.6298   23.3513    2.1471 C.ar      12 UNK        -0.0894 
     11 C11        32.7756   23.8845    3.4319 C.ar      12 UNK        -0.0804 
     12 C12        31.9193   23.4615    4.4552 C.ar      12 UNK        -0.0824 
     13 C13        30.9269   22.5082    4.1976 C.ar      12 UNK        -0.0762 
     14 C14        30.7863   21.9924    2.9065 C.ar      12 UNK        -0.0782 
     15 C15        30.0233   21.9981    5.3114 C.3       12 UNK         0.0230 
     16 S16        28.3272   22.6412    5.1604 S.3       12 UNK        -0.2608 
     17 C17        28.5455   24.3587    5.7297 C.3       12 UNK        -0.0989 
     18 CA         28.6841   25.3758    4.5623 C.3       5 UNK         0.0716 
     19 N          27.5592   25.3460    3.6159 N.am      5 UNK        -0.4135 
     20 C          26.2782   25.6449    3.8699 C.2       4 UNK         0.5031 
     21 O          25.8692   26.0429    4.9619 O.2       4 UNK        -0.5229 
     22 CA         25.2997   25.4956    2.6862 C.3       4 UNK         0.0329 
     23 CB         23.8488   25.8448    3.0682 C.3       4 UNK        -0.2001 
     24 N          25.6958   26.3142    1.5354 N.am      4 UNK        -0.4303 
     25 C          26.6577   26.0010    0.6601 C.2       3 UNK         0.5044 
     26 O          27.3400   24.9717    0.7345 O.2       3 UNK        -0.5152 
     27 CA         26.9219   27.0168   -0.4587 C.3       3 UNK         0.0319 
     28 CB         27.6746   28.2484    0.0681 C.3       3 UNK        -0.2001 
     29 N          27.7301   26.3550   -1.4714 N.am      3 UNK        -0.4354 
     30 C          27.6027   26.4794   -2.7959 C.2       2 UNK         0.4964 
     31 O          26.8840   27.3150   -3.3455 O.2       2 UNK        -0.5047 
     32 CA         28.3962   25.4763   -3.6550 C.3       2 UNK         0.0288 
     33 CB         29.7127   26.1050   -4.1401 C.3       2 UNK        -0.2113 
     34 N          28.6922   24.2215   -2.9521 N.am      2 UNK        -0.4145 
     35 C          27.7770   23.3281   -2.5469 C.2       1 UNK         0.5006 
     36 O          26.5715   23.4336   -2.7826 O.2       1 UNK        -0.5103 
     37 C          29.0244   26.7950    5.0759 C.2       5 UNK         0.5055 
     38 O          29.6455   26.9222    6.1309 O.2       5 UNK        -0.5220 
     39 N          28.6434   27.8349    4.3259 N.am      6 UNK        -0.4450 
     40 CA         28.9339   29.2376    4.6036 C.3       6 UNK         0.0367 
     41 CB         28.1116   29.7519    5.8029 C.3       6 UNK        -0.1929 
     42 C          28.6119   30.0192    3.3304 C.2       6 UNK         0.5070 
     43 O          27.4351   30.1501    2.9891 O.2       6 UNK        -0.5237 
     44 N          29.6529   30.4817    2.6342 N.am      7 UNK        -0.4739 
     45 CA         29.5558   31.3144    1.4363 C.3       7 UNK         0.0276 
     46 CB         30.5165   30.7490    0.3705 C.3       7 UNK        -0.1927 
     47 C          29.8574   32.7777    1.8119 C.2       7 UNK         0.5013 
     48 O          29.5927   33.1900    2.9449 O.2       7 UNK        -0.5193 
     49 N          30.4104   33.5488    0.8658 N.am      8 UNK        -0.4253 
     50 CA         30.9226   34.9019    1.0869 C.3       8 UNK         0.0242 
     51 CB         31.1225   35.5951   -0.2730 C.3       8 UNK        -0.2000 
     52 C          32.2289   34.8301    1.8953 C.2       8 UNK         0.4948 
     53 O          33.3000   34.6611    1.3091 O.2       8 UNK        -0.5275 
     54 N          32.1014   34.8655    3.2290 N.am      9 UNK        -0.4246 
     55 CA         33.1336   34.7019    4.2655 C.3       9 UNK         0.0261 
     56 CB         34.2341   35.7752    4.1526 C.3       9 UNK        -0.1959 
     57 C          33.7413   33.2875    4.3469 C.2       9 UNK         0.5033 
     58 O          33.9501   32.7894    5.4553 O.2       9 UNK        -0.5390 
     59 N          34.0065   32.6610    3.1933 N.am      10 UNK        -0.4215 
     60 CA         34.5190   31.2972    3.0560 C.3       10 UNK         0.0240 
     61 CB         34.7456   30.9823    1.5693 C.3       10 UNK        -0.1982 
     62 C          33.5881   30.2578    3.7037 C.2       10 UNK         0.4970 
     63 O          32.3679   30.3418    3.5429 O.2       10 UNK        -0.4916 
     64 N          34.1992   29.3177    4.4325 N.am      11 UNK        -0.4279 
     65 CA         33.5579   28.2794    5.2591 C.3       11 UNK         0.1003 
     66 C          32.8759   28.8076    6.5585 C.2       11 UNK         0.5709 
     67 N          32.8549   30.1073    6.8352 N.am      11 UNK        -0.7358 
     68 O          32.4146   28.0136    7.3732 O.2       11 UNK        -0.4999 
     69 C69        32.6415   27.3083    4.4565 C.3       12 UNK        -0.0954 
     70 S70        33.5044   26.5340    3.0484 S.3       12 UNK        -0.2268 
     71 C71        33.8907   24.8829    3.7083 C.3       12 UNK         0.0203 
     72 H72        25.8773   21.4715    1.8781 H         1 UNK         0.0888 
     73 H73        27.3981   20.9239    2.5894 H         1 UNK         0.0888 
     74 H74        27.2088   22.6094    2.1193 H         1 UNK         0.0888 
     75 H75        27.5709   23.2085   -0.0555 H         1 UNK         0.3017 
     76 H76        27.7953   21.2617   -2.1922 H         1 UNK         0.0873 
     77 H77        30.0010   20.8414   -1.4903 H         1 UNK         0.0745 
     78 H78        30.1898   21.9499   -2.7943 H         1 UNK         0.0745 
     79 H79        30.8822   20.9079    0.5423 H         1 UNK         0.0705 
     80 H80        32.4760   21.4841    0.1259 H         1 UNK         0.0705 
     81 H81        33.2934   23.6702    1.3546 H         1 UNK         0.1334 
     82 H82        32.0355   23.8617    5.4533 H         1 UNK         0.1417 
     83 H83        30.0204   21.2547    2.7090 H         1 UNK         0.1562 
     84 H84        30.4301   22.2453    6.2932 H         1 UNK         0.0748 
     85 H85        29.9865   20.9085    5.2684 H         1 UNK         0.0748 
     86 H86        29.4186   24.3955    6.3836 H         1 UNK         0.0940 
     87 H87        27.6950   24.6189    6.3621 H         1 UNK         0.0940 
     88 H88        29.5547   25.0803    3.9756 H         1 UNK         0.0703 
     89 H89        27.7830   25.0490    2.6710 H         1 UNK         0.3081 
     90 H90        25.3158   24.4442    2.3906 H         1 UNK         0.0719 
     91 H91        23.7511   26.8864    3.3769 H         1 UNK         0.0809 
     92 H92        23.1671   25.6758    2.2345 H         1 UNK         0.0809 
     93 H93        23.5027   25.2251    3.8966 H         1 UNK         0.0809 
     94 H94        25.2089   27.1925    1.4246 H         1 UNK         0.2990 
     95 H95        25.9630   27.3197   -0.8848 H         1 UNK         0.0690 
     96 H96        27.9463   28.9246   -0.7427 H         1 UNK         0.0788 
     97 H97        28.5894   27.9707    0.5934 H         1 UNK         0.0788 
     98 H98        27.0533   28.8150    0.7610 H         1 UNK         0.0788 
     99 H99        28.3067   25.6072   -1.1080 H         1 UNK         0.2993 
    100 H100       27.7832   25.2376   -4.5268 H         1 UNK         0.0949 
    101 H101       29.5248   27.0290   -4.6890 H         1 UNK         0.0767 
    102 H102       30.3746   26.3487   -3.3078 H         1 UNK         0.0767 
    103 H103       30.2491   25.4344   -4.8118 H         1 UNK         0.0767 
    104 H104       29.6556   24.0616   -2.6873 H         1 UNK         0.3013 
    105 H105       28.1234   27.6638    3.4766 H         1 UNK         0.3121 
    106 H106       29.9961   29.3461    4.8341 H         1 UNK         0.0774 
    107 H107       28.2639   30.8223    5.9465 H         1 UNK         0.0815 
    108 H108       27.0429   29.5886    5.6585 H         1 UNK         0.0815 
    109 H109       28.4029   29.2587    6.7300 H         1 UNK         0.0815 
    110 H110       30.5926   30.3703    3.0133 H         1 UNK         0.2987 
    111 H111       28.5415   31.2866    1.0325 H         1 UNK         0.0949 
    112 H112       30.3807   31.2371   -0.5950 H         1 UNK         0.0806 
    113 H113       31.5582   30.8699    0.6659 H         1 UNK         0.0806 
    114 H114       30.3462   29.6848    0.2099 H         1 UNK         0.0806 
    115 H115       30.6128   33.1349   -0.0325 H         1 UNK         0.3010 
    116 H116       30.1872   35.4770    1.6543 H         1 UNK         0.0829 
    117 H117       30.1796   35.6896   -0.8119 H         1 UNK         0.0813 
    118 H118       31.5216   36.6017   -0.1405 H         1 UNK         0.0813 
    119 H119       31.8198   35.0505   -0.9112 H         1 UNK         0.0813 
    120 H120       31.1539   34.8931    3.5855 H         1 UNK         0.3038 
    121 H121       32.6177   34.8668    5.2129 H         1 UNK         0.0769 
    122 H122       34.8205   35.6684    3.2396 H         1 UNK         0.0811 
    123 H123       34.9288   35.7066    4.9908 H         1 UNK         0.0811 
    124 H124       33.8111   36.7797    4.1642 H         1 UNK         0.0811 
    125 H125       33.8133   33.1774    2.3386 H         1 UNK         0.3204 
    126 H126       35.4857   31.2665    3.5630 H         1 UNK         0.0748 
    127 H127       35.4809   31.6566    1.1297 H         1 UNK         0.0771 
    128 H128       35.1177   29.9654    1.4359 H         1 UNK         0.0771 
    129 H129       33.8260   31.0716    0.9923 H         1 UNK         0.0771 
    130 H130       35.2059   29.3475    4.5014 H         1 UNK         0.2980 
    131 H131       34.3913   27.6812    5.6290 H         1 UNK         0.0545 
    132 H132       32.4323   30.4142    7.6964 H         1 UNK         0.3459 
    133 H133       33.2509   30.7884    6.2012 H         1 UNK         0.3459 
    134 H134       32.2504   26.5222    5.1043 H         1 UNK         0.0616 
    135 H135       31.7695   27.8342    4.0681 H         1 UNK         0.0616 
    136 H136       34.8089   24.5293    3.2370 H         1 UNK         0.0634 
    137 H137       34.1065   24.9482    4.7759 H         1 UNK         0.0634 
@<TRIPOS>BOND
     1    1    2 1    
     2    1   72 1    
     3    1   73 1    
     4    1   74 1    
     5    2    3 2    
     6    2    4 am   BACKBONE|DICT|INTERRES
     7    4    5 1    
     8    4   75 1    
     9    5    6 1    
    10    5   35 1    
    11    5   76 1    
    12    6    7 1    
    13    6   77 1    
    14    6   78 1    
    15    7    8 1    
    16    8    9 1    
    17    8   79 1    
    18    8   80 1    
    19    9   10 ar   
    20    9   14 ar   
    21   10   11 ar   
    22   10   81 1    
    23   11   12 ar   
    24   11   71 1    
    25   12   13 ar   
    26   12   82 1    
    27   13   14 ar   
    28   13   15 1    
    29   14   83 1    
    30   15   16 1    
    31   15   84 1    
    32   15   85 1    
    33   16   17 1    
    34   17   18 1    
    35   17   86 1    
    36   17   87 1    
    37   18   19 1    
    38   18   37 1    
    39   18   88 1    
    40   19   20 am   BACKBONE|DICT|INTERRES
    41   19   89 1    
    42   20   21 2    
    43   20   22 1    
    44   22   23 1    
    45   22   24 1    
    46   22   90 1    
    47   23   91 1    
    48   23   92 1    
    49   23   93 1    
    50   24   25 am   BACKBONE|DICT|INTERRES
    51   24   94 1    
    52   25   26 2    
    53   25   27 1    
    54   27   28 1    
    55   27   29 1    
    56   27   95 1    
    57   28   96 1    
    58   28   97 1    
    59   28   98 1    
    60   29   30 am   BACKBONE|DICT|INTERRES
    61   29   99 1    
    62   30   31 2    
    63   30   32 1    
    64   32   33 1    
    65   32   34 1    
    66   32  100 1    
    67   33  101 1    
    68   33  102 1    
    69   33  103 1    
    70   34   35 am   BACKBONE|DICT|INTERRES
    71   34  104 1    
    72   35   36 2    
    73   37   38 2    
    74   37   39 am   BACKBONE|DICT|INTERRES
    75   39   40 1    
    76   39  105 1    
    77   40   41 1    
    78   40   42 1    
    79   40  106 1    
    80   41  107 1    
    81   41  108 1    
    82   41  109 1    
    83   42   43 2    
    84   42   44 am   BACKBONE|DICT|INTERRES
    85   44   45 1    
    86   44  110 1    
    87   45   46 1    
    88   45   47 1    
    89   45  111 1    
    90   46  112 1    
    91   46  113 1    
    92   46  114 1    
    93   47   48 2    
    94   47   49 am   BACKBONE|DICT|INTERRES
    95   49   50 1    
    96   49  115 1    
    97   50   51 1    
    98   50   52 1    
    99   50  116 1    
   100   51  117 1    
   101   51  118 1    
   102   51  119 1    
   103   52   53 2    
   104   52   54 am   BACKBONE|DICT|INTERRES
   105   54   55 1    
   106   54  120 1    
   107   55   56 1    
   108   55   57 1    
   109   55  121 1    
   110   56  122 1    
   111   56  123 1    
   112   56  124 1    
   113   57   58 2    
   114   57   59 am   BACKBONE|DICT|INTERRES
   115   59   60 1    
   116   59  125 1    
   117   60   61 1    
   118   60   62 1    
   119   60  126 1    
   120   61  127 1    
   121   61  128 1    
   122   61  129 1    
   123   62   63 2    
   124   62   64 am   BACKBONE|DICT|INTERRES
   125   64   65 1    
   126   64  130 1    
   127   65   66 1    
   128   65   69 1    
   129   65  131 1    
   130   66   67 am   BACKBONE|DICT|INTERRES
   131   66   68 2    
   132   67  132 1    
   133   67  133 1    
   134   69   70 1    
   135   69  134 1    
   136   69  135 1    
   137   70   71 1    
   138   71  136 1    
   139   71  137 1    
@<TRIPOS>SUBSTRUCTURE
     1 UNK         1 GROUP             0       ****    0 ROOT    
