@<TRIPOS>MOLECULE
3R136
137   139    1
SMALL
USER_CHARGES


@<TRIPOS>ATOM
      1 CA         26.1893   23.1982    0.6528 C.3       0 UNK        -0.1979 
      2 C          27.3391   22.3457    0.1393 C.2       0 UNK         0.4864 
      3 O          27.2196   21.1202    0.0901 O.2       0 UNK        -0.5359 
      4 N          28.4425   22.9916   -0.2472 N.am      1 UNK        -0.4318 
      5 CA         29.6247   22.3748   -0.8480 C.3       1 UNK         0.0824 
      6 C6         30.8251   22.3143    0.1391 C.3       12 UNK        -0.0944 
      7 S7         31.3708   23.9261    0.8162 S.3       12 UNK        -0.2672 
      8 C8         32.0855   23.4238    2.4122 C.3       12 UNK         0.0333 
      9 C9         31.2094   23.8485    3.5812 C.ar      12 UNK        -0.0807 
     10 C10        31.6457   24.8543    4.4480 C.ar      12 UNK        -0.0894 
     11 C11        30.8593   25.2463    5.5347 C.ar      12 UNK        -0.0804 
     12 C12        29.6310   24.6206    5.7582 C.ar      12 UNK        -0.0824 
     13 C13        29.1747   23.6253    4.8887 C.ar      12 UNK        -0.0762 
     14 C14        29.9709   23.2376    3.8055 C.ar      12 UNK        -0.0782 
     15 C15        27.8198   22.9727    5.1171 C.3       12 UNK         0.0230 
     16 S16        26.5038   23.8072    4.1746 S.3       12 UNK        -0.2608 
     17 C17        26.3113   25.3800    5.0812 C.3       12 UNK        -0.0989 
     18 CA         27.0023   26.5750    4.3750 C.3       5 UNK         0.0716 
     19 N          26.4923   26.7741    3.0122 N.am      5 UNK        -0.4135 
     20 C          27.0552   27.5588    2.0848 C.2       4 UNK         0.5031 
     21 O          28.0423   28.2689    2.2888 O.2       4 UNK        -0.5229 
     22 CA         26.3384   27.6048    0.7232 C.3       4 UNK         0.0329 
     23 CB         25.2822   28.7225    0.7169 C.3       4 UNK        -0.2001 
     24 N          27.2611   27.8146   -0.3943 N.am      4 UNK        -0.4303 
     25 C          28.2005   26.9421   -0.7785 C.2       3 UNK         0.5044 
     26 O          28.3609   25.8322   -0.2599 O.2       3 UNK        -0.5152 
     27 CA         29.0947   27.3735   -1.9517 C.3       3 UNK         0.0319 
     28 CB         29.8533   28.6768   -1.6529 C.3       3 UNK        -0.2001 
     29 N          30.0469   26.3010   -2.2084 N.am      3 UNK        -0.4354 
     30 C          30.5534   25.9461   -3.3942 C.2       2 UNK         0.4964 
     31 O          30.3772   26.5794   -4.4356 O.2       2 UNK        -0.5047 
     32 CA         31.3857   24.6480   -3.4278 C.3       2 UNK         0.0288 
     33 CB         32.8878   24.9722   -3.3756 C.3       2 UNK        -0.2113 
     34 N          31.0562   23.7333   -2.3291 N.am      2 UNK        -0.4145 
     35 C          29.8888   23.0896   -2.1877 C.2       1 UNK         0.5006 
     36 O          29.0170   23.0717   -3.0600 O.2       1 UNK        -0.5103 
     37 C          26.9085   27.8372    5.2611 C.2       5 UNK         0.5055 
     38 O          27.5865   27.9027    6.2871 O.2       5 UNK        -0.5220 
     39 N          26.0814   28.8175    4.8697 N.am      6 UNK        -0.4450 
     40 CA         25.8527   30.0864    5.5669 C.3       6 UNK         0.0367 
     41 CB         24.4826   30.6435    5.1354 C.3       6 UNK        -0.1929 
     42 C          26.9970   31.1037    5.3625 C.2       6 UNK         0.5070 
     43 O          26.7367   32.2561    5.0135 O.2       6 UNK        -0.5237 
     44 N          28.2418   30.6590    5.5872 N.am      7 UNK        -0.4739 
     45 CA         29.4940   31.4266    5.5411 C.3       7 UNK         0.0276 
     46 CB         29.5490   32.4328    6.7102 C.3       7 UNK        -0.1927 
     47 C          29.7942   32.0862    4.1791 C.2       7 UNK         0.5013 
     48 O          30.4426   33.1348    4.1407 O.2       7 UNK        -0.5193 
     49 N          29.3463   31.4684    3.0763 N.am      8 UNK        -0.4253 
     50 CA         29.5024   31.9805    1.7108 C.3       8 UNK         0.0242 
     51 CB         28.4021   31.3781    0.8186 C.3       8 UNK        -0.2000 
     52 C          30.9180   31.7308    1.1552 C.2       8 UNK         0.4948 
     53 O          31.0764   31.0121    0.1687 O.2       8 UNK        -0.5275 
     54 N          31.9319   32.3032    1.8181 N.am      9 UNK        -0.4246 
     55 CA         33.3741   32.2711    1.5218 C.3       9 UNK         0.0261 
     56 CB         33.6797   32.9062    0.1514 C.3       9 UNK        -0.1959 
     57 C          34.0473   30.8901    1.6467 C.2       9 UNK         0.5033 
     58 O          35.1686   30.8215    2.1522 O.2       9 UNK        -0.5390 
     59 N          33.3638   29.8170    1.2255 N.am      10 UNK        -0.4215 
     60 CA         33.8258   28.4221    1.2638 C.3       10 UNK         0.0240 
     61 CB         32.7796   27.5187    0.5903 C.3       10 UNK        -0.1982 
     62 C          34.1647   27.8958    2.6719 C.2       10 UNK         0.4970 
     63 O          34.9543   26.9579    2.7878 O.2       10 UNK        -0.4916 
     64 N          33.5859   28.5153    3.7075 N.am      11 UNK        -0.4279 
     65 CA         33.9118   28.2772    5.1205 C.3       11 UNK         0.1003 
     66 C          35.2779   28.8723    5.5741 C.2       11 UNK         0.5709 
     67 N          35.9495   29.7038    4.7847 N.am      11 UNK        -0.7358 
     68 O          35.7438   28.5633    6.6682 O.2       11 UNK        -0.4999 
     69 C69        32.7660   28.7376    6.0611 C.3       12 UNK        -0.0954 
     70 S70        31.1636   27.9734    5.6480 S.3       12 UNK        -0.2268 
     71 C71        31.3369   26.3544    6.4566 C.3       12 UNK         0.0203 
     72 H72        25.6698   22.6868    1.4626 H         1 UNK         0.0888 
     73 H73        26.5440   24.1564    1.0319 H         1 UNK         0.0888 
     74 H74        25.4742   23.3868   -0.1471 H         1 UNK         0.0888 
     75 H75        28.4608   24.0106   -0.2041 H         1 UNK         0.3017 
     76 H76        29.3944   21.3448   -1.1283 H         1 UNK         0.0873 
     77 H77        31.6804   21.8235   -0.3290 H         1 UNK         0.0745 
     78 H78        30.5447   21.6677    0.9718 H         1 UNK         0.0745 
     79 H79        32.2454   22.3454    2.4447 H         1 UNK         0.0705 
     80 H80        33.0758   23.8747    2.4957 H         1 UNK         0.0705 
     81 H81        32.5952   25.3423    4.2739 H         1 UNK         0.1334 
     82 H82        29.0204   24.9263    6.5966 H         1 UNK         0.1417 
     83 H83        29.6211   22.4700    3.1288 H         1 UNK         0.1562 
     84 H84        27.5679   22.9649    6.1787 H         1 UNK         0.0748 
     85 H85        27.8603   21.9267    4.8093 H         1 UNK         0.0748 
     86 H86        26.6924   25.2532    6.0961 H         1 UNK         0.0940 
     87 H87        25.2424   25.5727    5.1926 H         1 UNK         0.0940 
     88 H88        28.0662   26.3499    4.2807 H         1 UNK         0.0703 
     89 H89        25.6806   26.2266    2.7655 H         1 UNK         0.3081 
     90 H90        25.8351   26.6492    0.5605 H         1 UNK         0.0719 
     91 H91        25.7311   29.7037    0.8760 H         1 UNK         0.0809 
     92 H92        24.7398   28.7514   -0.2284 H         1 UNK         0.0809 
     93 H93        24.5431   28.5712    1.5046 H         1 UNK         0.0809 
     94 H94        27.2091   28.7078   -0.8604 H         1 UNK         0.2990 
     95 H95        28.4581   27.5102   -2.8283 H         1 UNK         0.0690 
     96 H96        30.5974   28.8957   -2.4187 H         1 UNK         0.0788 
     97 H97        30.3664   28.6236   -0.6932 H         1 UNK         0.0788 
     98 H98        29.1775   29.5310   -1.6124 H         1 UNK         0.0788 
     99 H99        30.1931   25.6922   -1.4130 H         1 UNK         0.2993 
    100 H100       31.1698   24.1422   -4.3714 H         1 UNK         0.0949 
    101 H101       33.1609   25.4721   -2.4450 H         1 UNK         0.0767 
    102 H102       33.4922   24.0690   -3.4627 H         1 UNK         0.0767 
    103 H103       33.1730   25.6321   -4.1963 H         1 UNK         0.0767 
    104 H104       31.6970   23.7126   -1.5461 H         1 UNK         0.3013 
    105 H105       25.5859   28.6920    4.0002 H         1 UNK         0.3121 
    106 H106       25.8025   29.8845    6.6391 H         1 UNK         0.0774 
    107 H107       24.4619   30.8853    4.0720 H         1 UNK         0.0815 
    108 H108       24.2410   31.5561    5.6821 H         1 UNK         0.0815 
    109 H109       23.6822   29.9308    5.3348 H         1 UNK         0.0815 
    110 H110       28.3303   29.6845    5.8644 H         1 UNK         0.2987 
    111 H111       30.2972   30.7090    5.6996 H         1 UNK         0.0949 
    112 H112       29.3682   31.9409    7.6659 H         1 UNK         0.0806 
    113 H113       30.5285   32.9083    6.7750 H         1 UNK         0.0806 
    114 H114       28.8095   33.2260    6.5950 H         1 UNK         0.0806 
    115 H115       28.8604   30.5865    3.1767 H         1 UNK         0.3010 
    116 H116       29.3512   33.0621    1.7252 H         1 UNK         0.0829 
    117 H117       28.4476   31.7919   -0.1896 H         1 UNK         0.0813 
    118 H118       28.5055   30.2972    0.7305 H         1 UNK         0.0813 
    119 H119       27.4089   31.5920    1.2134 H         1 UNK         0.0813 
    120 H120       31.6721   32.8203    2.6550 H         1 UNK         0.3038 
    121 H121       33.8358   32.9042    2.2814 H         1 UNK         0.0769 
    122 H122       33.2588   32.3272   -0.6712 H         1 UNK         0.0811 
    123 H123       34.7558   32.9695   -0.0161 H         1 UNK         0.0811 
    124 H124       33.2822   33.9190    0.0864 H         1 UNK         0.0811 
    125 H125       32.4603   30.0004    0.7904 H         1 UNK         0.3204 
    126 H126       34.7456   28.3724    0.6778 H         1 UNK         0.0748 
    127 H127       33.1043   26.4773    0.5925 H         1 UNK         0.0771 
    128 H128       31.8176   27.5601    1.1034 H         1 UNK         0.0771 
    129 H129       32.6229   27.8013   -0.4507 H         1 UNK         0.0771 
    130 H130       32.9394   29.2652    3.5199 H         1 UNK         0.2980 
    131 H131       34.0166   27.1982    5.2450 H         1 UNK         0.0545 
    132 H132       35.5926   29.9775    3.8746 H         1 UNK         0.3459 
    133 H133       36.8329   30.0697    5.1015 H         1 UNK         0.3459 
    134 H134       32.6471   29.8210    6.0072 H         1 UNK         0.0616 
    135 H135       32.9989   28.5105    7.1032 H         1 UNK         0.0616 
    136 H136       32.3759   26.1668    6.7300 H         1 UNK         0.0634 
    137 H137       30.7699   26.3622    7.3887 H         1 UNK         0.0634 
@<TRIPOS>BOND
     1    1    2 1    
     2    1   72 1    
     3    1   73 1    
     4    1   74 1    
     5    2    3 2    
     6    2    4 am   BACKBONE|DICT|INTERRES
     7    4    5 1    
     8    4   75 1    
     9    5    6 1    
    10    5   35 1    
    11    5   76 1    
    12    6    7 1    
    13    6   77 1    
    14    6   78 1    
    15    7    8 1    
    16    8    9 1    
    17    8   79 1    
    18    8   80 1    
    19    9   10 ar   
    20    9   14 ar   
    21   10   11 ar   
    22   10   81 1    
    23   11   12 ar   
    24   11   71 1    
    25   12   13 ar   
    26   12   82 1    
    27   13   14 ar   
    28   13   15 1    
    29   14   83 1    
    30   15   16 1    
    31   15   84 1    
    32   15   85 1    
    33   16   17 1    
    34   17   18 1    
    35   17   86 1    
    36   17   87 1    
    37   18   19 1    
    38   18   37 1    
    39   18   88 1    
    40   19   20 am   BACKBONE|DICT|INTERRES
    41   19   89 1    
    42   20   21 2    
    43   20   22 1    
    44   22   23 1    
    45   22   24 1    
    46   22   90 1    
    47   23   91 1    
    48   23   92 1    
    49   23   93 1    
    50   24   25 am   BACKBONE|DICT|INTERRES
    51   24   94 1    
    52   25   26 2    
    53   25   27 1    
    54   27   28 1    
    55   27   29 1    
    56   27   95 1    
    57   28   96 1    
    58   28   97 1    
    59   28   98 1    
    60   29   30 am   BACKBONE|DICT|INTERRES
    61   29   99 1    
    62   30   31 2    
    63   30   32 1    
    64   32   33 1    
    65   32   34 1    
    66   32  100 1    
    67   33  101 1    
    68   33  102 1    
    69   33  103 1    
    70   34   35 am   BACKBONE|DICT|INTERRES
    71   34  104 1    
    72   35   36 2    
    73   37   38 2    
    74   37   39 am   BACKBONE|DICT|INTERRES
    75   39   40 1    
    76   39  105 1    
    77   40   41 1    
    78   40   42 1    
    79   40  106 1    
    80   41  107 1    
    81   41  108 1    
    82   41  109 1    
    83   42   43 2    
    84   42   44 am   BACKBONE|DICT|INTERRES
    85   44   45 1    
    86   44  110 1    
    87   45   46 1    
    88   45   47 1    
    89   45  111 1    
    90   46  112 1    
    91   46  113 1    
    92   46  114 1    
    93   47   48 2    
    94   47   49 am   BACKBONE|DICT|INTERRES
    95   49   50 1    
    96   49  115 1    
    97   50   51 1    
    98   50   52 1    
    99   50  116 1    
   100   51  117 1    
   101   51  118 1    
   102   51  119 1    
   103   52   53 2    
   104   52   54 am   BACKBONE|DICT|INTERRES
   105   54   55 1    
   106   54  120 1    
   107   55   56 1    
   108   55   57 1    
   109   55  121 1    
   110   56  122 1    
   111   56  123 1    
   112   56  124 1    
   113   57   58 2    
   114   57   59 am   BACKBONE|DICT|INTERRES
   115   59   60 1    
   116   59  125 1    
   117   60   61 1    
   118   60   62 1    
   119   60  126 1    
   120   61  127 1    
   121   61  128 1    
   122   61  129 1    
   123   62   63 2    
   124   62   64 am   BACKBONE|DICT|INTERRES
   125   64   65 1    
   126   64  130 1    
   127   65   66 1    
   128   65   69 1    
   129   65  131 1    
   130   66   67 am   BACKBONE|DICT|INTERRES
   131   66   68 2    
   132   67  132 1    
   133   67  133 1    
   134   69   70 1    
   135   69  134 1    
   136   69  135 1    
   137   70   71 1    
   138   71  136 1    
   139   71  137 1    
@<TRIPOS>SUBSTRUCTURE
     1 UNK         1 GROUP             0       ****    0 ROOT    
