@<TRIPOS>MOLECULE
3R136
137   139    1
SMALL
USER_CHARGES


@<TRIPOS>ATOM
      1 CA         29.2728   20.4904   -2.9262 C.3       0 UNK        -0.1979 
      2 C          28.6907   21.5304   -1.9810 C.2       0 UNK         0.4864 
      3 O          27.4711   21.5895   -1.8183 O.2       0 UNK        -0.5359 
      4 N          29.5523   22.3669   -1.3808 N.am      1 UNK        -0.4318 
      5 CA         29.2308   23.3874   -0.3663 C.3       1 UNK         0.0824 
      6 C6         28.7816   22.7736    0.9899 C.3       12 UNK        -0.0944 
      7 S7         29.9173   21.5350    1.7032 S.3       12 UNK        -0.2672 
      8 C8         31.4049   22.5119    2.1122 C.3       12 UNK         0.0333 
      9 C9         31.1387   23.7912    2.9028 C.ar      12 UNK        -0.0807 
     10 C10        31.8154   24.9624    2.5501 C.ar      12 UNK        -0.0894 
     11 C11        31.6176   26.1458    3.2653 C.ar      12 UNK        -0.0804 
     12 C12        30.7119   26.1619    4.3298 C.ar      12 UNK        -0.0824 
     13 C13        30.0432   24.9936    4.7107 C.ar      12 UNK        -0.0762 
     14 C14        30.2661   23.8102    3.9982 C.ar      12 UNK        -0.0782 
     15 C15        29.1157   24.9991    5.9200 C.3       12 UNK         0.0230 
     16 S16        27.3542   24.9212    5.4608 S.3       12 UNK        -0.2608 
     17 C17        27.1323   26.4868    4.5554 C.3       12 UNK        -0.0989 
     18 CA         27.0022   26.2517    3.0303 C.3       5 UNK         0.0716 
     19 N          25.6744   25.8019    2.6293 N.am      5 UNK        -0.4135 
     20 C          25.3212   24.5536    2.3147 C.2       4 UNK         0.5031 
     21 O          25.9883   23.5525    2.5750 O.2       4 UNK        -0.5229 
     22 CA         24.0254   24.3878    1.5110 C.3       4 UNK         0.0329 
     23 CB         23.1263   25.6458    1.4680 C.3       4 UNK        -0.2001 
     24 N          24.4184   23.9943    0.1605 N.am      4 UNK        -0.4303 
     25 C          23.6378   23.3789   -0.7355 C.2       3 UNK         0.5044 
     26 O          22.4612   23.0838   -0.5164 O.2       3 UNK        -0.5152 
     27 CA         24.2703   22.9968   -2.0917 C.3       3 UNK         0.0319 
     28 CB         23.2687   23.0910   -3.2631 C.3       3 UNK        -0.2001 
     29 N          25.5208   23.7036   -2.4011 N.am      3 UNK        -0.4354 
     30 C          25.6913   25.0154   -2.6428 C.2       2 UNK         0.4964 
     31 O          24.7668   25.8286   -2.6788 O.2       2 UNK        -0.5047 
     32 CA         27.1436   25.5005   -2.8721 C.3       2 UNK         0.0288 
     33 CB         27.3331   26.9972   -2.5367 C.3       2 UNK        -0.2113 
     34 N          28.1511   24.6815   -2.1798 N.am      2 UNK        -0.4145 
     35 C          28.2186   24.4530   -0.8578 C.2       1 UNK         0.5006 
     36 O          27.4827   25.0153   -0.0469 O.2       1 UNK        -0.5103 
     37 C          27.2179   27.5558    2.2512 C.2       5 UNK         0.5055 
     38 O          26.2827   28.3570    2.1505 O.2       5 UNK        -0.5220 
     39 N          28.4271   27.7519    1.7153 N.am      6 UNK        -0.4450 
     40 CA         28.8073   28.9737    1.0080 C.3       6 UNK         0.0367 
     41 CB         29.9978   28.6755    0.0825 C.3       6 UNK        -0.1929 
     42 C          29.1577   30.0855    2.0079 C.2       6 UNK         0.5070 
     43 O          29.7142   29.8025    3.0708 O.2       6 UNK        -0.5237 
     44 N          28.8851   31.3403    1.6338 N.am      7 UNK        -0.4739 
     45 CA         29.1970   32.5373    2.4244 C.3       7 UNK         0.0276 
     46 CB         28.1832   33.6430    2.0737 C.3       7 UNK        -0.1927 
     47 C          30.6602   32.9898    2.2334 C.2       7 UNK         0.5013 
     48 O          30.9145   34.1688    1.9783 O.2       7 UNK        -0.5193 
     49 N          31.5967   32.0391    2.3275 N.am      8 UNK        -0.4253 
     50 CA         33.0321   32.2639    2.1817 C.3       8 UNK         0.0242 
     51 CB         33.6978   30.9610    1.7107 C.3       8 UNK        -0.2000 
     52 C          33.6361   32.7182    3.5153 C.2       8 UNK         0.4948 
     53 O          33.3100   32.1435    4.5570 O.2       8 UNK        -0.5275 
     54 N          34.5569   33.6897    3.4570 N.am      9 UNK        -0.4246 
     55 CA         35.2756   34.2308    4.6183 C.3       9 UNK         0.0261 
     56 CB         36.1011   35.4526    4.1830 C.3       9 UNK        -0.1959 
     57 C          36.1714   33.2019    5.3337 C.2       9 UNK         0.5033 
     58 O          36.4013   33.3356    6.5361 O.2       9 UNK        -0.5390 
     59 N          36.6424   32.1899    4.5912 N.am      10 UNK        -0.4215 
     60 CA         37.3858   31.0443    5.1179 C.3       10 UNK         0.0240 
     61 CB         38.0625   30.3021    3.9535 C.3       10 UNK        -0.1982 
     62 C          36.5067   30.0757    5.9307 C.2       10 UNK         0.4970 
     63 O          37.0246   29.4248    6.8393 O.2       10 UNK        -0.4916 
     64 N          35.2139   29.9882    5.5909 N.am      11 UNK        -0.4279 
     65 CA         34.2268   29.1527    6.2884 C.3       11 UNK         0.1003 
     66 C          33.5591   29.9139    7.4628 C.2       11 UNK         0.5709 
     67 N          33.2133   31.1848    7.2936 N.am      11 UNK        -0.7358 
     68 O          33.3606   29.3496    8.5359 O.2       11 UNK        -0.4999 
     69 C69        33.1514   28.5867    5.3265 C.3       12 UNK        -0.0954 
     70 S70        33.8630   27.6139    3.9572 S.3       12 UNK        -0.2268 
     71 C71        32.4031   27.3947    2.8934 C.3       12 UNK         0.0203 
     72 H72        30.3585   20.5594   -2.9914 H         1 UNK         0.0888 
     73 H73        29.0172   19.4889   -2.5813 H         1 UNK         0.0888 
     74 H74        28.8628   20.6213   -3.9272 H         1 UNK         0.0888 
     75 H75        30.5379   22.2659   -1.5810 H         1 UNK         0.3017 
     76 H76        30.1551   23.9381   -0.1879 H         1 UNK         0.0873 
     77 H77        28.6309   23.5542    1.7355 H         1 UNK         0.0745 
     78 H78        27.8091   22.2911    0.8753 H         1 UNK         0.0745 
     79 H79        32.0833   21.8830    2.6900 H         1 UNK         0.0705 
     80 H80        31.9236   22.7402    1.1800 H         1 UNK         0.0705 
     81 H81        32.5159   24.9503    1.7260 H         1 UNK         0.1334 
     82 H82        30.5494   27.0795    4.8780 H         1 UNK         0.1417 
     83 H83        29.7529   22.9049    4.2933 H         1 UNK         0.1562 
     84 H84        29.2872   25.8829    6.5366 H         1 UNK         0.0748 
     85 H85        29.3492   24.1417    6.5530 H         1 UNK         0.0748 
     86 H86        27.9736   27.1447    4.7819 H         1 UNK         0.0940 
     87 H87        26.2482   26.9958    4.9441 H         1 UNK         0.0940 
     88 H88        27.7538   25.5311    2.7011 H         1 UNK         0.0703 
     89 H89        25.0748   26.5631    2.3368 H         1 UNK         0.3081 
     90 H90        23.4657   23.5716    1.9726 H         1 UNK         0.0719 
     91 H91        23.5961   26.4681    0.9264 H         1 UNK         0.0809 
     92 H92        22.1783   25.4326    0.9738 H         1 UNK         0.0809 
     93 H93        22.8844   25.9948    2.4729 H         1 UNK         0.0809 
     94 H94        25.3879   24.1769   -0.0766 H         1 UNK         0.2990 
     95 H95        24.5516   21.9473   -1.9928 H         1 UNK         0.0690 
     96 H96        23.7328   22.8041   -4.2066 H         1 UNK         0.0788 
     97 H97        22.8698   24.0993   -3.3766 H         1 UNK         0.0788 
     98 H98        22.4198   22.4244   -3.1067 H         1 UNK         0.0788 
     99 H99        26.3481   23.1139   -2.3477 H         1 UNK         0.2993 
    100 H100       27.3304   25.3770   -3.9399 H         1 UNK         0.0949 
    101 H101       27.1007   27.2135   -1.4932 H         1 UNK         0.0767 
    102 H102       28.3572   27.3185   -2.7257 H         1 UNK         0.0767 
    103 H103       26.6823   27.6221   -3.1494 H         1 UNK         0.0767 
    104 H104       28.7872   24.1698   -2.7755 H         1 UNK         0.3013 
    105 H105       29.1545   27.0703    1.8744 H         1 UNK         0.3121 
    106 H106       27.9675   29.3019    0.3910 H         1 UNK         0.0774 
    107 H107       30.8809   28.3671    0.6402 H         1 UNK         0.0815 
    108 H108       30.2726   29.5582   -0.4964 H         1 UNK         0.0815 
    109 H109       29.7582   27.8844   -0.6282 H         1 UNK         0.0815 
    110 H110       28.4694   31.4991    0.7265 H         1 UNK         0.2987 
    111 H111       29.0764   32.3050    3.4853 H         1 UNK         0.0949 
    112 H112       28.2621   33.9474    1.0293 H         1 UNK         0.0806 
    113 H113       27.1593   33.3135    2.2515 H         1 UNK         0.0806 
    114 H114       28.3445   34.5313    2.6860 H         1 UNK         0.0806 
    115 H115       31.2979   31.1144    2.6158 H         1 UNK         0.3010 
    116 H116       33.2001   33.0329    1.4243 H         1 UNK         0.0829 
    117 H117       33.2727   30.6163    0.7677 H         1 UNK         0.0813 
    118 H118       34.7677   31.1005    1.5512 H         1 UNK         0.0813 
    119 H119       33.5786   30.1619    2.4418 H         1 UNK         0.0813 
    120 H120       34.7718   34.1041    2.5607 H         1 UNK         0.3038 
    121 H121       34.5279   34.5639    5.3414 H         1 UNK         0.0769 
    122 H122       36.8528   35.1893    3.4377 H         1 UNK         0.0811 
    123 H123       36.6257   35.8916    5.0331 H         1 UNK         0.0811 
    124 H124       35.4661   36.2318    3.7609 H         1 UNK         0.0811 
    125 H125       36.4267   32.1825    3.6054 H         1 UNK         0.3204 
    126 H126       38.1660   31.4202    5.7836 H         1 UNK         0.0748 
    127 H127       38.6503   29.4586    4.3186 H         1 UNK         0.0771 
    128 H128       37.3322   29.9072    3.2458 H         1 UNK         0.0771 
    129 H129       38.7427   30.9558    3.4070 H         1 UNK         0.0771 
    130 H130       34.8401   30.6087    4.8868 H         1 UNK         0.2980 
    131 H131       34.7426   28.2935    6.7222 H         1 UNK         0.0545 
    132 H132       33.3136   31.6238    6.3824 H         1 UNK         0.3459 
    133 H133       32.7854   31.6886    8.0531 H         1 UNK         0.3459 
    134 H134       32.5523   29.3971    4.9062 H         1 UNK         0.0616 
    135 H135       32.4645   27.9423    5.8765 H         1 UNK         0.0616 
    136 H136       31.7663   28.2757    2.9501 H         1 UNK         0.0634 
    137 H137       32.7417   27.3308    1.8584 H         1 UNK         0.0634 
@<TRIPOS>BOND
     1    1    2 1    
     2    1   72 1    
     3    1   73 1    
     4    1   74 1    
     5    2    3 2    
     6    2    4 am   BACKBONE|DICT|INTERRES
     7    4    5 1    
     8    4   75 1    
     9    5    6 1    
    10    5   35 1    
    11    5   76 1    
    12    6    7 1    
    13    6   77 1    
    14    6   78 1    
    15    7    8 1    
    16    8    9 1    
    17    8   79 1    
    18    8   80 1    
    19    9   10 ar   
    20    9   14 ar   
    21   10   11 ar   
    22   10   81 1    
    23   11   12 ar   
    24   11   71 1    
    25   12   13 ar   
    26   12   82 1    
    27   13   14 ar   
    28   13   15 1    
    29   14   83 1    
    30   15   16 1    
    31   15   84 1    
    32   15   85 1    
    33   16   17 1    
    34   17   18 1    
    35   17   86 1    
    36   17   87 1    
    37   18   19 1    
    38   18   37 1    
    39   18   88 1    
    40   19   20 am   BACKBONE|DICT|INTERRES
    41   19   89 1    
    42   20   21 2    
    43   20   22 1    
    44   22   23 1    
    45   22   24 1    
    46   22   90 1    
    47   23   91 1    
    48   23   92 1    
    49   23   93 1    
    50   24   25 am   BACKBONE|DICT|INTERRES
    51   24   94 1    
    52   25   26 2    
    53   25   27 1    
    54   27   28 1    
    55   27   29 1    
    56   27   95 1    
    57   28   96 1    
    58   28   97 1    
    59   28   98 1    
    60   29   30 am   BACKBONE|DICT|INTERRES
    61   29   99 1    
    62   30   31 2    
    63   30   32 1    
    64   32   33 1    
    65   32   34 1    
    66   32  100 1    
    67   33  101 1    
    68   33  102 1    
    69   33  103 1    
    70   34   35 am   BACKBONE|DICT|INTERRES
    71   34  104 1    
    72   35   36 2    
    73   37   38 2    
    74   37   39 am   BACKBONE|DICT|INTERRES
    75   39   40 1    
    76   39  105 1    
    77   40   41 1    
    78   40   42 1    
    79   40  106 1    
    80   41  107 1    
    81   41  108 1    
    82   41  109 1    
    83   42   43 2    
    84   42   44 am   BACKBONE|DICT|INTERRES
    85   44   45 1    
    86   44  110 1    
    87   45   46 1    
    88   45   47 1    
    89   45  111 1    
    90   46  112 1    
    91   46  113 1    
    92   46  114 1    
    93   47   48 2    
    94   47   49 am   BACKBONE|DICT|INTERRES
    95   49   50 1    
    96   49  115 1    
    97   50   51 1    
    98   50   52 1    
    99   50  116 1    
   100   51  117 1    
   101   51  118 1    
   102   51  119 1    
   103   52   53 2    
   104   52   54 am   BACKBONE|DICT|INTERRES
   105   54   55 1    
   106   54  120 1    
   107   55   56 1    
   108   55   57 1    
   109   55  121 1    
   110   56  122 1    
   111   56  123 1    
   112   56  124 1    
   113   57   58 2    
   114   57   59 am   BACKBONE|DICT|INTERRES
   115   59   60 1    
   116   59  125 1    
   117   60   61 1    
   118   60   62 1    
   119   60  126 1    
   120   61  127 1    
   121   61  128 1    
   122   61  129 1    
   123   62   63 2    
   124   62   64 am   BACKBONE|DICT|INTERRES
   125   64   65 1    
   126   64  130 1    
   127   65   66 1    
   128   65   69 1    
   129   65  131 1    
   130   66   67 am   BACKBONE|DICT|INTERRES
   131   66   68 2    
   132   67  132 1    
   133   67  133 1    
   134   69   70 1    
   135   69  134 1    
   136   69  135 1    
   137   70   71 1    
   138   71  136 1    
   139   71  137 1    
@<TRIPOS>SUBSTRUCTURE
     1 UNK         1 GROUP             0       ****    0 ROOT    
