@<TRIPOS>MOLECULE
3R136
137   139    1
SMALL
USER_CHARGES


@<TRIPOS>ATOM
      1 CA         32.1463   26.8636    0.1005 C.3       0 UNK        -0.1979 
      2 C          30.9822   25.9504    0.4555 C.2       0 UNK         0.4864 
      3 O          29.8854   26.4413    0.7250 O.2       0 UNK        -0.5359 
      4 N          31.2267   24.6330    0.4633 N.am      1 UNK        -0.4318 
      5 CA         30.2463   23.5759    0.7255 C.3       1 UNK         0.0824 
      6 C6         30.9473   22.3307    1.3386 C.3       12 UNK        -0.0944 
      7 S7         29.7915   21.1058    2.0482 S.3       12 UNK        -0.2672 
      8 C8         29.9276   21.4368    3.8322 C.3       12 UNK         0.0333 
      9 C9         29.3214   22.7808    4.2060 C.ar      12 UNK        -0.0807 
     10 C10        30.1421   23.8468    4.5840 C.ar      12 UNK        -0.0894 
     11 C11        29.5848   25.0772    4.9439 C.ar      12 UNK        -0.0804 
     12 C12        28.1959   25.2386    4.9254 C.ar      12 UNK        -0.0824 
     13 C13        27.3657   24.1807    4.5401 C.ar      12 UNK        -0.0762 
     14 C14        27.9345   22.9538    4.1857 C.ar      12 UNK        -0.0782 
     15 C15        25.8536   24.3479    4.5171 C.3       12 UNK         0.0230 
     16 S16        25.2534   24.8233    2.8649 S.3       12 UNK        -0.2608 
     17 C17        25.6146   26.6132    2.8394 C.3       12 UNK        -0.0989 
     18 CA         26.8828   26.9559    2.0122 C.3       5 UNK         0.0716 
     19 N          26.7921   26.5354    0.6099 N.am      5 UNK        -0.4135 
     20 C          25.9495   26.9964   -0.3273 C.2       4 UNK         0.5031 
     21 O          25.1364   27.9056   -0.1580 O.2       4 UNK        -0.5229 
     22 CA         25.9951   26.2791   -1.6844 C.3       4 UNK         0.0329 
     23 CB         27.2050   26.7420   -2.5136 C.3       4 UNK        -0.2001 
     24 N          26.0297   24.8261   -1.4979 N.am      4 UNK        -0.4303 
     25 C          24.9534   24.0827   -1.1925 C.2       3 UNK         0.5044 
     26 O          23.8100   24.5413   -1.1603 O.2       3 UNK        -0.5152 
     27 CA         25.1622   22.5948   -0.8277 C.3       3 UNK         0.0319 
     28 CB         24.0935   21.6802   -1.4642 C.3       3 UNK        -0.2001 
     29 N          26.5156   22.0823   -1.0758 N.am      3 UNK        -0.4354 
     30 C          27.1407   21.9385   -2.2550 C.2       2 UNK         0.4964 
     31 O          26.6048   22.1380   -3.3461 O.2       2 UNK        -0.5047 
     32 CA         28.6334   21.5443   -2.1908 C.3       2 UNK         0.0288 
     33 CB         29.4072   21.9672   -3.4580 C.3       2 UNK        -0.2113 
     34 N          29.3320   22.0334   -0.9893 N.am      2 UNK        -0.4145 
     35 C          29.4189   23.3019   -0.5551 C.2       1 UNK         0.5006 
     36 O          28.8425   24.2363   -1.1134 O.2       1 UNK        -0.5103 
     37 C          27.2763   28.4426    2.1189 C.2       5 UNK         0.5055 
     38 O          26.4525   29.2796    2.4977 O.2       5 UNK        -0.5220 
     39 N          28.5252   28.7396    1.7385 N.am      6 UNK        -0.4450 
     40 CA         29.1204   30.0787    1.7465 C.3       6 UNK         0.0367 
     41 CB         30.5354   29.9982    1.1505 C.3       6 UNK        -0.1929 
     42 C          29.1678   30.7320    3.1421 C.2       6 UNK         0.5070 
     43 O          29.2012   30.0404    4.1620 O.2       6 UNK        -0.5237 
     44 N          29.2128   32.0664    3.1484 N.am      7 UNK        -0.4739 
     45 CA         29.3808   32.9104    4.3277 C.3       7 UNK         0.0276 
     46 CB         28.0093   33.4371    4.7833 C.3       7 UNK        -0.1927 
     47 C          30.3222   34.0618    3.9561 C.2       7 UNK         0.5013 
     48 O          30.4189   34.4038    2.7736 O.2       7 UNK        -0.5193 
     49 N          30.9967   34.6280    4.9686 N.am      8 UNK        -0.4253 
     50 CA         32.0347   35.6670    4.8610 C.3       8 UNK         0.0242 
     51 CB         31.4288   37.0070    4.3896 C.3       8 UNK        -0.2000 
     52 C          33.2412   35.2165    4.0081 C.2       8 UNK         0.4948 
     53 O          33.7986   36.0092    3.2461 O.2       8 UNK        -0.5275 
     54 N          33.6105   33.9395    4.1508 N.am      9 UNK        -0.4246 
     55 CA         34.6702   33.2483    3.4269 C.3       9 UNK         0.0261 
     56 CB         34.1524   32.8130    2.0419 C.3       9 UNK        -0.1959 
     57 C          35.0956   32.0354    4.2622 C.2       9 UNK         0.5033 
     58 O          34.3875   31.6616    5.2041 O.2       9 UNK        -0.5390 
     59 N          36.2251   31.4194    3.8926 N.am      10 UNK        -0.4215 
     60 CA         36.7919   30.2262    4.5311 C.3       10 UNK         0.0240 
     61 CB         38.2889   30.1357    4.1771 C.3       10 UNK        -0.1982 
     62 C          36.0174   28.9401    4.1709 C.2       10 UNK         0.4970 
     63 O          36.5819   28.0246    3.5690 O.2       10 UNK        -0.4916 
     64 N          34.7298   28.9088    4.5296 N.am      11 UNK        -0.4279 
     65 CA         33.8214   27.7681    4.3722 C.3       11 UNK         0.1003 
     66 C          34.2502   26.5524    5.2415 C.2       11 UNK         0.5709 
     67 N          34.1727   25.3414    4.7063 N.am      11 UNK        -0.7358 
     68 O          34.6206   26.6990    6.4052 O.2       11 UNK        -0.4999 
     69 C69        32.3609   28.2028    4.6615 C.3       12 UNK        -0.0954 
     70 S70        31.1410   27.0879    3.8977 S.3       12 UNK        -0.2268 
     71 C71        30.4908   26.2253    5.3562 C.3       12 UNK         0.0203 
     72 H72        31.8525   27.5556   -0.6881 H         1 UNK         0.0888 
     73 H73        32.4464   27.4431    0.9725 H         1 UNK         0.0888 
     74 H74        33.0131   26.3031   -0.2488 H         1 UNK         0.0888 
     75 H75        32.1484   24.3108    0.2064 H         1 UNK         0.3017 
     76 H76        29.5411   23.9552    1.4689 H         1 UNK         0.0873 
     77 H77        31.5827   21.8347    0.6024 H         1 UNK         0.0745 
     78 H78        31.6266   22.6499    2.1309 H         1 UNK         0.0745 
     79 H79        29.4085   20.6467    4.3765 H         1 UNK         0.0705 
     80 H80        30.9740   21.3781    4.1361 H         1 UNK         0.0705 
     81 H81        31.2165   23.7235    4.5982 H         1 UNK         0.1334 
     82 H82        27.7632   26.1899    5.2033 H         1 UNK         0.1417 
     83 H83        27.2975   22.1315    3.8886 H         1 UNK         0.1562 
     84 H84        25.5324   25.0787    5.2608 H         1 UNK         0.0748 
     85 H85        25.3789   23.4071    4.8004 H         1 UNK         0.0748 
     86 H86        25.7186   26.9746    3.8637 H         1 UNK         0.0940 
     87 H87        24.7421   27.1284    2.4340 H         1 UNK         0.0940 
     88 H88        27.7139   26.3911    2.4363 H         1 UNK         0.0703 
     89 H89        27.4763   25.8456    0.3281 H         1 UNK         0.3081 
     90 H90        25.0912   26.5393   -2.2397 H         1 UNK         0.0719 
     91 H91        27.1315   27.8061   -2.7413 H         1 UNK         0.0809 
     92 H92        28.1476   26.5912   -1.9862 H         1 UNK         0.0809 
     93 H93        27.2633   26.2092   -3.4627 H         1 UNK         0.0809 
     94 H94        26.9505   24.3963   -1.4890 H         1 UNK         0.2990 
     95 H95        25.0277   22.5435    0.2539 H         1 UNK         0.0690 
     96 H96        24.2430   20.6381   -1.1818 H         1 UNK         0.0788 
     97 H97        24.1037   21.7390   -2.5528 H         1 UNK         0.0788 
     98 H98        23.0921   21.9614   -1.1361 H         1 UNK         0.0788 
     99 H99        27.0577   21.8897   -0.2451 H         1 UNK         0.2993 
    100 H100       28.6525   20.4546   -2.1380 H         1 UNK         0.0949 
    101 H101       29.3824   23.0481   -3.6025 H         1 UNK         0.0767 
    102 H102       30.4517   21.6600   -3.4059 H         1 UNK         0.0767 
    103 H103       28.9817   21.5086   -4.3516 H         1 UNK         0.0767 
    104 H104       29.7803   21.3235   -0.4235 H         1 UNK         0.3013 
    105 H105       29.1217   27.9702    1.4347 H         1 UNK         0.3121 
    106 H106       28.5045   30.7062    1.0989 H         1 UNK         0.0774 
    107 H107       31.1908   29.3808    1.7651 H         1 UNK         0.0815 
    108 H108       30.5195   29.5781    0.1449 H         1 UNK         0.0815 
    109 H109       30.9917   30.9865    1.0806 H         1 UNK         0.0815 
    110 H110       29.2697   32.5710    2.2719 H         1 UNK         0.2987 
    111 H111       29.8401   32.3357    5.1356 H         1 UNK         0.0949 
    112 H112       27.3378   32.6176    5.0408 H         1 UNK         0.0806 
    113 H113       28.1041   34.0684    5.6677 H         1 UNK         0.0806 
    114 H114       27.5278   34.0322    4.0062 H         1 UNK         0.0806 
    115 H115       30.8306   34.2791    5.9031 H         1 UNK         0.3010 
    116 H116       32.4219   35.8206    5.8695 H         1 UNK         0.0829 
    117 H117       31.0750   36.9528    3.3596 H         1 UNK         0.0813 
    118 H118       30.5895   37.3060    5.0174 H         1 UNK         0.0813 
    119 H119       32.1680   37.8076    4.4360 H         1 UNK         0.0813 
    120 H120       33.1571   33.3604    4.8476 H         1 UNK         0.3038 
    121 H121       35.5285   33.9144    3.3160 H         1 UNK         0.0769 
    122 H122       33.8346   33.6710    1.4492 H         1 UNK         0.0811 
    123 H123       33.3011   32.1358    2.1268 H         1 UNK         0.0811 
    124 H124       34.9255   32.2979    1.4709 H         1 UNK         0.0811 
    125 H125       36.7240   31.7725    3.0882 H         1 UNK         0.3204 
    126 H126       36.7186   30.3473    5.6143 H         1 UNK         0.0748 
    127 H127       38.4457   30.0243    3.1034 H         1 UNK         0.0771 
    128 H128       38.8287   31.0244    4.5050 H         1 UNK         0.0771 
    129 H129       38.7552   29.2789    4.6658 H         1 UNK         0.0771 
    130 H130       34.3577   29.7276    5.0008 H         1 UNK         0.2980 
    131 H131       33.8868   27.4749    3.3222 H         1 UNK         0.0545 
    132 H132       34.4410   24.5436    5.2599 H         1 UNK         0.3459 
    133 H133       33.8565   25.2130    3.7586 H         1 UNK         0.3459 
    134 H134       32.1743   29.1916    4.2387 H         1 UNK         0.0616 
    135 H135       32.1759   28.3001    5.7329 H         1 UNK         0.0616 
    136 H136       29.9511   26.9367    5.9833 H         1 UNK         0.0634 
    137 H137       31.3180   25.8434    5.9563 H         1 UNK         0.0634 
@<TRIPOS>BOND
     1    1    2 1    
     2    1   72 1    
     3    1   73 1    
     4    1   74 1    
     5    2    3 2    
     6    2    4 am   BACKBONE|DICT|INTERRES
     7    4    5 1    
     8    4   75 1    
     9    5    6 1    
    10    5   35 1    
    11    5   76 1    
    12    6    7 1    
    13    6   77 1    
    14    6   78 1    
    15    7    8 1    
    16    8    9 1    
    17    8   79 1    
    18    8   80 1    
    19    9   10 ar   
    20    9   14 ar   
    21   10   11 ar   
    22   10   81 1    
    23   11   12 ar   
    24   11   71 1    
    25   12   13 ar   
    26   12   82 1    
    27   13   14 ar   
    28   13   15 1    
    29   14   83 1    
    30   15   16 1    
    31   15   84 1    
    32   15   85 1    
    33   16   17 1    
    34   17   18 1    
    35   17   86 1    
    36   17   87 1    
    37   18   19 1    
    38   18   37 1    
    39   18   88 1    
    40   19   20 am   BACKBONE|DICT|INTERRES
    41   19   89 1    
    42   20   21 2    
    43   20   22 1    
    44   22   23 1    
    45   22   24 1    
    46   22   90 1    
    47   23   91 1    
    48   23   92 1    
    49   23   93 1    
    50   24   25 am   BACKBONE|DICT|INTERRES
    51   24   94 1    
    52   25   26 2    
    53   25   27 1    
    54   27   28 1    
    55   27   29 1    
    56   27   95 1    
    57   28   96 1    
    58   28   97 1    
    59   28   98 1    
    60   29   30 am   BACKBONE|DICT|INTERRES
    61   29   99 1    
    62   30   31 2    
    63   30   32 1    
    64   32   33 1    
    65   32   34 1    
    66   32  100 1    
    67   33  101 1    
    68   33  102 1    
    69   33  103 1    
    70   34   35 am   BACKBONE|DICT|INTERRES
    71   34  104 1    
    72   35   36 2    
    73   37   38 2    
    74   37   39 am   BACKBONE|DICT|INTERRES
    75   39   40 1    
    76   39  105 1    
    77   40   41 1    
    78   40   42 1    
    79   40  106 1    
    80   41  107 1    
    81   41  108 1    
    82   41  109 1    
    83   42   43 2    
    84   42   44 am   BACKBONE|DICT|INTERRES
    85   44   45 1    
    86   44  110 1    
    87   45   46 1    
    88   45   47 1    
    89   45  111 1    
    90   46  112 1    
    91   46  113 1    
    92   46  114 1    
    93   47   48 2    
    94   47   49 am   BACKBONE|DICT|INTERRES
    95   49   50 1    
    96   49  115 1    
    97   50   51 1    
    98   50   52 1    
    99   50  116 1    
   100   51  117 1    
   101   51  118 1    
   102   51  119 1    
   103   52   53 2    
   104   52   54 am   BACKBONE|DICT|INTERRES
   105   54   55 1    
   106   54  120 1    
   107   55   56 1    
   108   55   57 1    
   109   55  121 1    
   110   56  122 1    
   111   56  123 1    
   112   56  124 1    
   113   57   58 2    
   114   57   59 am   BACKBONE|DICT|INTERRES
   115   59   60 1    
   116   59  125 1    
   117   60   61 1    
   118   60   62 1    
   119   60  126 1    
   120   61  127 1    
   121   61  128 1    
   122   61  129 1    
   123   62   63 2    
   124   62   64 am   BACKBONE|DICT|INTERRES
   125   64   65 1    
   126   64  130 1    
   127   65   66 1    
   128   65   69 1    
   129   65  131 1    
   130   66   67 am   BACKBONE|DICT|INTERRES
   131   66   68 2    
   132   67  132 1    
   133   67  133 1    
   134   69   70 1    
   135   69  134 1    
   136   69  135 1    
   137   70   71 1    
   138   71  136 1    
   139   71  137 1    
@<TRIPOS>SUBSTRUCTURE
     1 UNK         1 GROUP             0       ****    0 ROOT    
