@<TRIPOS>MOLECULE
3R136
137   139    1
SMALL
USER_CHARGES


@<TRIPOS>ATOM
      1 CA         26.0518   20.8754    0.1781 C.3       0 UNK        -0.1979 
      2 C          27.0971   21.6606    0.9551 C.2       0 UNK         0.4864 
      3 O          26.9550   21.8250    2.1680 O.2       0 UNK        -0.5359 
      4 N          28.1341   22.1559    0.2623 N.am      1 UNK        -0.4318 
      5 CA         29.2589   22.9358    0.7978 C.3       1 UNK         0.0824 
      6 C6         30.2750   22.0651    1.5920 C.3       12 UNK        -0.0944 
      7 S7         31.2195   20.9839    0.4616 S.3       12 UNK        -0.2672 
      8 C8         32.8371   21.8305    0.3498 C.3       12 UNK         0.0333 
      9 C9         32.6970   23.3232    0.0776 C.ar      12 UNK        -0.0807 
     10 C10        33.0369   24.2505    1.0690 C.ar      12 UNK        -0.0894 
     11 C11        32.8231   25.6155    0.8634 C.ar      12 UNK        -0.0804 
     12 C12        32.2763   26.0517   -0.3443 C.ar      12 UNK        -0.0824 
     13 C13        31.9289   25.1372   -1.3406 C.ar      12 UNK        -0.0762 
     14 C14        32.1710   23.7749   -1.1378 C.ar      12 UNK        -0.0782 
     15 C15        31.2422   25.6178   -2.6091 C.3       12 UNK         0.0230 
     16 S16        29.4414   25.3496   -2.4985 S.3       12 UNK        -0.2608 
     17 C17        28.7385   27.0102   -2.8234 C.3       12 UNK        -0.0989 
     18 CA         28.0365   27.6762   -1.6018 C.3       5 UNK         0.0716 
     19 N          27.0814   26.7823   -0.9406 N.am      5 UNK        -0.4135 
     20 C          25.8281   26.5851   -1.3647 C.2       4 UNK         0.5031 
     21 O          25.2838   27.2830   -2.2220 O.2       4 UNK        -0.5229 
     22 CA         25.0484   25.3948   -0.7875 C.3       4 UNK         0.0329 
     23 CB         25.4018   24.1160   -1.5655 C.3       4 UNK        -0.2001 
     24 N          25.2767   25.1640    0.6440 N.am      4 UNK        -0.4303 
     25 C          24.2935   25.0902    1.5564 C.2       3 UNK         0.5044 
     26 O          23.1142   25.3425    1.3037 O.2       3 UNK        -0.5152 
     27 CA         24.6408   24.6230    2.9843 C.3       3 UNK         0.0319 
     28 CB         23.9852   23.2624    3.2781 C.3       3 UNK        -0.2001 
     29 N          26.0790   24.5113    3.2274 N.am      3 UNK        -0.4354 
     30 C          26.8494   25.5197    3.6592 C.2       2 UNK         0.4964 
     31 O          26.4095   26.6292    3.9591 O.2       2 UNK        -0.5047 
     32 CA         28.3676   25.2685    3.7532 C.3       2 UNK         0.0288 
     33 CB         28.7834   24.9779    5.2032 C.3       2 UNK        -0.2113 
     34 N          28.8630   24.1962    2.8859 N.am      2 UNK        -0.4145 
     35 C          28.7531   24.1817    1.5501 C.2       1 UNK         0.5006 
     36 O          28.2075   25.0812    0.9077 O.2       1 UNK        -0.5103 
     37 C          28.9917   28.3389   -0.5921 C.2       5 UNK         0.5055 
     38 O          30.1654   28.5452   -0.9038 O.2       5 UNK        -0.5220 
     39 N          28.4715   28.7069    0.5891 N.am      6 UNK        -0.4450 
     40 CA         29.1858   29.4547    1.6299 C.3       6 UNK         0.0367 
     41 CB         28.3899   29.3955    2.9455 C.3       6 UNK        -0.1929 
     42 C          29.4725   30.9087    1.2067 C.2       6 UNK         0.5070 
     43 O          28.7573   31.8268    1.6106 O.2       6 UNK        -0.5237 
     44 N          30.5074   31.0864    0.3783 N.am      7 UNK        -0.4739 
     45 CA         30.9570   32.3732   -0.1612 C.3       7 UNK         0.0276 
     46 CB         31.9148   32.1076   -1.3343 C.3       7 UNK        -0.1927 
     47 C          31.6218   33.2968    0.8774 C.2       7 UNK         0.5013 
     48 O          31.7401   34.4958    0.6198 O.2       7 UNK        -0.5193 
     49 N          32.0469   32.7386    2.0163 N.am      8 UNK        -0.4253 
     50 CA         32.6413   33.4510    3.1414 C.3       8 UNK         0.0242 
     51 CB         34.1734   33.4597    2.9965 C.3       8 UNK        -0.2000 
     52 C          32.2203   32.7534    4.4371 C.2       8 UNK         0.4948 
     53 O          31.9690   31.5454    4.4263 O.2       8 UNK        -0.5275 
     54 N          32.2051   33.5136    5.5405 N.am      9 UNK        -0.4246 
     55 CA         31.8161   33.0615    6.8839 C.3       9 UNK         0.0261 
     56 CB         31.7466   34.2790    7.8212 C.3       9 UNK        -0.1959 
     57 C          32.7190   31.9679    7.4887 C.2       9 UNK         0.5033 
     58 O          32.3037   31.3055    8.4401 O.2       9 UNK        -0.5390 
     59 N          33.9236   31.7876    6.9295 N.am      10 UNK        -0.4215 
     60 CA         34.8535   30.7065    7.2609 C.3       10 UNK         0.0240 
     61 CB         36.2279   31.0250    6.6488 C.3       10 UNK        -0.1982 
     62 C          34.3707   29.3154    6.8036 C.2       10 UNK         0.4970 
     63 O          34.8508   28.3176    7.3427 O.2       10 UNK        -0.4916 
     64 N          33.4563   29.2623    5.8239 N.am      11 UNK        -0.4279 
     65 CA         32.8282   28.0301    5.3356 C.3       11 UNK         0.1003 
     66 C          31.8769   27.4158    6.4004 C.2       11 UNK         0.5709 
     67 N          32.0432   26.1416    6.7290 N.am      11 UNK        -0.7358 
     68 O          30.9764   28.0804    6.9087 O.2       11 UNK        -0.4999 
     69 C69        32.1099   28.2957    3.9897 C.3       12 UNK        -0.0954 
     70 S70        31.7070   26.7693    3.0817 S.3       12 UNK        -0.2268 
     71 C71        33.1279   26.6214    1.9596 C.3       12 UNK         0.0203 
     72 H72        26.2506   20.8792   -0.8935 H         1 UNK         0.0888 
     73 H73        26.0343   19.8402    0.5176 H         1 UNK         0.0888 
     74 H74        25.0633   21.3036    0.3413 H         1 UNK         0.0888 
     75 H75        28.1767   21.9901   -0.7331 H         1 UNK         0.3017 
     76 H76        29.7691   23.3437   -0.0731 H         1 UNK         0.0873 
     77 H77        30.9796   22.6777    2.1560 H         1 UNK         0.0745 
     78 H78        29.7646   21.4396    2.3262 H         1 UNK         0.0745 
     79 H79        33.3874   21.6573    1.2760 H         1 UNK         0.0705 
     80 H80        33.4249   21.3710   -0.4459 H         1 UNK         0.0705 
     81 H81        33.4323   23.9102    2.0164 H         1 UNK         0.1334 
     82 H82        32.0949   27.1053   -0.4940 H         1 UNK         0.1417 
     83 H83        31.8872   23.0598   -1.8984 H         1 UNK         0.1562 
     84 H84        31.6323   25.0755   -3.4715 H         1 UNK         0.0748 
     85 H85        31.4684   26.6707   -2.7820 H         1 UNK         0.0748 
     86 H86        28.0001   26.8825   -3.6163 H         1 UNK         0.0940 
     87 H87        29.4914   27.6716   -3.2547 H         1 UNK         0.0940 
     88 H88        27.4781   28.5270   -1.9981 H         1 UNK         0.0703 
     89 H89        27.4891   26.1559   -0.2452 H         1 UNK         0.3081 
     90 H90        23.9932   25.6059   -0.9733 H         1 UNK         0.0719 
     91 H91        26.4485   23.8404   -1.4329 H         1 UNK         0.0809 
     92 H92        24.7853   23.2762   -1.2465 H         1 UNK         0.0809 
     93 H93        25.2347   24.2499   -2.6353 H         1 UNK         0.0809 
     94 H94        26.2345   24.9992    0.9347 H         1 UNK         0.2990 
     95 H95        24.2124   25.3525    3.6750 H         1 UNK         0.0690 
     96 H96        24.1959   22.9318    4.2953 H         1 UNK         0.0788 
     97 H97        24.3353   22.4883    2.5949 H         1 UNK         0.0788 
     98 H98        22.9006   23.3194    3.1761 H         1 UNK         0.0788 
     99 H99        26.5099   23.6203    2.9944 H         1 UNK         0.2993 
    100 H100       28.8613   26.1861    3.4338 H         1 UNK         0.0949 
    101 H101       29.8652   24.8763    5.2900 H         1 UNK         0.0767 
    102 H102       28.4834   25.7915    5.8654 H         1 UNK         0.0767 
    103 H103       28.3260   24.0618    5.5790 H         1 UNK         0.0767 
    104 H104       29.2700   23.3951    3.3454 H         1 UNK         0.3013 
    105 H105       27.4915   28.5284    0.7535 H         1 UNK         0.3121 
    106 H106       30.1468   28.9668    1.8006 H         1 UNK         0.0774 
    107 H107       28.8816   29.9795    3.7251 H         1 UNK         0.0815 
    108 H108       27.3798   29.7900    2.8302 H         1 UNK         0.0815 
    109 H109       28.3115   28.3768    3.3161 H         1 UNK         0.0815 
    110 H110       30.9553   30.2529    0.0119 H         1 UNK         0.2987 
    111 H111       30.0816   32.9013   -0.5458 H         1 UNK         0.0949 
    112 H112       32.8088   31.5725   -1.0114 H         1 UNK         0.0806 
    113 H113       31.4332   31.5171   -2.1141 H         1 UNK         0.0806 
    114 H114       32.2416   33.0421   -1.7926 H         1 UNK         0.0806 
    115 H115       31.8593   31.7589    2.1862 H         1 UNK         0.3010 
    116 H116       32.2680   34.4775    3.1653 H         1 UNK         0.0829 
    117 H117       34.4799   33.9539    2.0743 H         1 UNK         0.0813 
    118 H118       34.6455   33.9956    3.8207 H         1 UNK         0.0813 
    119 H119       34.5827   32.4485    2.9842 H         1 UNK         0.0813 
    120 H120       32.4469   34.4910    5.4542 H         1 UNK         0.3038 
    121 H121       30.8142   32.6337    6.8056 H         1 UNK         0.0769 
    122 H122       32.7168   34.7673    7.9215 H         1 UNK         0.0811 
    123 H123       31.4256   33.9849    8.8217 H         1 UNK         0.0811 
    124 H124       31.0319   35.0190    7.4606 H         1 UNK         0.0811 
    125 H125       34.1839   32.3944    6.1665 H         1 UNK         0.3204 
    126 H126       34.9608   30.6732    8.3472 H         1 UNK         0.0748 
    127 H127       36.9567   30.2539    6.9030 H         1 UNK         0.0771 
    128 H128       36.1824   31.0838    5.5604 H         1 UNK         0.0771 
    129 H129       36.6193   31.9720    7.0215 H         1 UNK         0.0771 
    130 H130       33.0702   30.1244    5.4556 H         1 UNK         0.2980 
    131 H131       33.6375   27.3223    5.1438 H         1 UNK         0.0545 
    132 H132       32.7760   25.5892    6.3129 H         1 UNK         0.3459 
    133 H133       31.4308   25.7293    7.4142 H         1 UNK         0.3459 
    134 H134       31.1880   28.8572    4.1507 H         1 UNK         0.0616 
    135 H135       32.7278   28.9259    3.3483 H         1 UNK         0.0616 
    136 H136       34.0100   26.3172    2.5250 H         1 UNK         0.0634 
    137 H137       33.3560   27.5931    1.5188 H         1 UNK         0.0634 
@<TRIPOS>BOND
     1    1    2 1    
     2    1   72 1    
     3    1   73 1    
     4    1   74 1    
     5    2    3 2    
     6    2    4 am   BACKBONE|DICT|INTERRES
     7    4    5 1    
     8    4   75 1    
     9    5    6 1    
    10    5   35 1    
    11    5   76 1    
    12    6    7 1    
    13    6   77 1    
    14    6   78 1    
    15    7    8 1    
    16    8    9 1    
    17    8   79 1    
    18    8   80 1    
    19    9   10 ar   
    20    9   14 ar   
    21   10   11 ar   
    22   10   81 1    
    23   11   12 ar   
    24   11   71 1    
    25   12   13 ar   
    26   12   82 1    
    27   13   14 ar   
    28   13   15 1    
    29   14   83 1    
    30   15   16 1    
    31   15   84 1    
    32   15   85 1    
    33   16   17 1    
    34   17   18 1    
    35   17   86 1    
    36   17   87 1    
    37   18   19 1    
    38   18   37 1    
    39   18   88 1    
    40   19   20 am   BACKBONE|DICT|INTERRES
    41   19   89 1    
    42   20   21 2    
    43   20   22 1    
    44   22   23 1    
    45   22   24 1    
    46   22   90 1    
    47   23   91 1    
    48   23   92 1    
    49   23   93 1    
    50   24   25 am   BACKBONE|DICT|INTERRES
    51   24   94 1    
    52   25   26 2    
    53   25   27 1    
    54   27   28 1    
    55   27   29 1    
    56   27   95 1    
    57   28   96 1    
    58   28   97 1    
    59   28   98 1    
    60   29   30 am   BACKBONE|DICT|INTERRES
    61   29   99 1    
    62   30   31 2    
    63   30   32 1    
    64   32   33 1    
    65   32   34 1    
    66   32  100 1    
    67   33  101 1    
    68   33  102 1    
    69   33  103 1    
    70   34   35 am   BACKBONE|DICT|INTERRES
    71   34  104 1    
    72   35   36 2    
    73   37   38 2    
    74   37   39 am   BACKBONE|DICT|INTERRES
    75   39   40 1    
    76   39  105 1    
    77   40   41 1    
    78   40   42 1    
    79   40  106 1    
    80   41  107 1    
    81   41  108 1    
    82   41  109 1    
    83   42   43 2    
    84   42   44 am   BACKBONE|DICT|INTERRES
    85   44   45 1    
    86   44  110 1    
    87   45   46 1    
    88   45   47 1    
    89   45  111 1    
    90   46  112 1    
    91   46  113 1    
    92   46  114 1    
    93   47   48 2    
    94   47   49 am   BACKBONE|DICT|INTERRES
    95   49   50 1    
    96   49  115 1    
    97   50   51 1    
    98   50   52 1    
    99   50  116 1    
   100   51  117 1    
   101   51  118 1    
   102   51  119 1    
   103   52   53 2    
   104   52   54 am   BACKBONE|DICT|INTERRES
   105   54   55 1    
   106   54  120 1    
   107   55   56 1    
   108   55   57 1    
   109   55  121 1    
   110   56  122 1    
   111   56  123 1    
   112   56  124 1    
   113   57   58 2    
   114   57   59 am   BACKBONE|DICT|INTERRES
   115   59   60 1    
   116   59  125 1    
   117   60   61 1    
   118   60   62 1    
   119   60  126 1    
   120   61  127 1    
   121   61  128 1    
   122   61  129 1    
   123   62   63 2    
   124   62   64 am   BACKBONE|DICT|INTERRES
   125   64   65 1    
   126   64  130 1    
   127   65   66 1    
   128   65   69 1    
   129   65  131 1    
   130   66   67 am   BACKBONE|DICT|INTERRES
   131   66   68 2    
   132   67  132 1    
   133   67  133 1    
   134   69   70 1    
   135   69  134 1    
   136   69  135 1    
   137   70   71 1    
   138   71  136 1    
   139   71  137 1    
@<TRIPOS>SUBSTRUCTURE
     1 UNK         1 GROUP             0       ****    0 ROOT    
