@<TRIPOS>MOLECULE
3R136
137   139    1
SMALL
USER_CHARGES


@<TRIPOS>ATOM
      1 CA         26.1816   26.3620    6.2237 C.3       0 UNK        -0.1979 
      2 C          26.4322   25.8786    4.8039 C.2       0 UNK         0.4864 
      3 O          26.5936   26.7021    3.9027 O.2       0 UNK        -0.5359 
      4 N          26.4691   24.5550    4.5985 N.am      1 UNK        -0.4318 
      5 CA         26.6855   23.8529    3.3245 C.3       1 UNK         0.0824 
      6 C6         28.0473   24.1635    2.6426 C.3       12 UNK        -0.0944 
      7 S7         29.4456   23.5526    3.6420 S.3       12 UNK        -0.2672 
      8 C8         30.6765   23.1616    2.3579 C.3       12 UNK         0.0333 
      9 C9         31.5441   24.3672    2.0266 C.ar      12 UNK        -0.0807 
     10 C10        32.8407   24.4595    2.5425 C.ar      12 UNK        -0.0894 
     11 C11        33.6487   25.5605    2.2431 C.ar      12 UNK        -0.0804 
     12 C12        33.1529   26.5750    1.4189 C.ar      12 UNK        -0.0824 
     13 C13        31.8592   26.4928    0.8962 C.ar      12 UNK        -0.0762 
     14 C14        31.0592   25.3869    1.2018 C.ar      12 UNK        -0.0782 
     15 C15        31.3069   27.6126    0.0314 C.3       12 UNK         0.0230 
     16 S16        31.0688   27.0885   -1.6939 S.3       12 UNK        -0.2608 
     17 C17        29.9309   28.3952   -2.2844 C.3       12 UNK        -0.0989 
     18 CA         28.4359   27.9745   -2.3425 C.3       5 UNK         0.0716 
     19 N          28.2217   26.7892   -3.1567 N.am      5 UNK        -0.4135 
     20 C          27.9936   26.7401   -4.4716 C.2       4 UNK         0.5031 
     21 O          28.0511   27.7185   -5.2177 O.2       4 UNK        -0.5229 
     22 CA         27.6137   25.3605   -5.0500 C.3       4 UNK         0.0329 
     23 CB         28.8204   24.7230   -5.7578 C.3       4 UNK        -0.2001 
     24 N          27.1073   24.4325   -4.0294 N.am      4 UNK        -0.4303 
     25 C          25.9519   24.5870   -3.3654 C.2       3 UNK         0.5044 
     26 O          25.1170   25.4473   -3.6517 O.2       3 UNK        -0.5152 
     27 CA         25.7041   23.6744   -2.1525 C.3       3 UNK         0.0319 
     28 CB         26.8627   22.7036   -1.8382 C.3       3 UNK        -0.2001 
     29 N          25.4811   24.5187   -0.9800 N.am      3 UNK        -0.4354 
     30 C          24.2923   24.7714   -0.4193 C.2       2 UNK         0.4964 
     31 O          23.2244   24.3101   -0.8284 O.2       2 UNK        -0.5047 
     32 CA         24.3221   25.6674    0.8372 C.3       2 UNK         0.0288 
     33 CB         22.9445   25.7992    1.5196 C.3       2 UNK        -0.2113 
     34 N          25.3315   25.2429    1.8176 N.am      2 UNK        -0.4145 
     35 C          25.4988   24.0248    2.3555 C.2       1 UNK         0.5006 
     36 O          24.7724   23.0565    2.1245 O.2       1 UNK        -0.5103 
     37 C          27.8287   27.6843   -0.9564 C.2       5 UNK         0.5055 
     38 O          27.6125   26.5155   -0.6095 O.2       5 UNK        -0.5220 
     39 N          27.5848   28.7477   -0.1839 N.am      6 UNK        -0.4450 
     40 CA         27.2185   28.6742    1.2284 C.3       6 UNK         0.0367 
     41 CB         26.0169   29.5918    1.5024 C.3       6 UNK        -0.1929 
     42 C          28.4306   29.1074    2.0585 C.2       6 UNK         0.5070 
     43 O          29.1208   30.0578    1.6796 O.2       6 UNK        -0.5237 
     44 N          28.6728   28.4169    3.1754 N.am      7 UNK        -0.4739 
     45 CA         29.7940   28.6514    4.0873 C.3       7 UNK         0.0276 
     46 CB         30.1148   27.3450    4.8358 C.3       7 UNK        -0.1927 
     47 C          29.5029   29.8342    5.0302 C.2       7 UNK         0.5013 
     48 O          29.4265   29.6613    6.2477 O.2       7 UNK        -0.5193 
     49 N          29.3209   31.0200    4.4348 N.am      8 UNK        -0.4253 
     50 CA         29.0430   32.2870    5.1189 C.3       8 UNK         0.0242 
     51 CB         28.4585   33.2798    4.1003 C.3       8 UNK        -0.2000 
     52 C          30.2729   32.8937    5.8222 C.2       8 UNK         0.4948 
     53 O          30.1098   33.7947    6.6464 O.2       8 UNK        -0.5275 
     54 N          31.4695   32.4002    5.4893 N.am      9 UNK        -0.4246 
     55 CA         32.7486   32.7349    6.1041 C.3       9 UNK         0.0261 
     56 CB         33.5040   33.7249    5.2002 C.3       9 UNK        -0.1959 
     57 C          33.5390   31.4329    6.2864 C.2       9 UNK         0.5033 
     58 O          33.2071   30.4244    5.6545 O.2       9 UNK        -0.5390 
     59 N          34.5658   31.4772    7.1446 N.am      10 UNK        -0.4215 
     60 CA         35.4486   30.3479    7.4465 C.3       10 UNK         0.0240 
     61 CB         36.3785   30.7261    8.6113 C.3       10 UNK        -0.1982 
     62 C          36.2699   29.9059    6.2230 C.2       10 UNK         0.4970 
     63 O          36.7790   30.7559    5.4880 O.2       10 UNK        -0.4916 
     64 N          36.3885   28.5866    6.0474 N.am      11 UNK        -0.4279 
     65 CA         37.1481   27.9395    4.9694 C.3       11 UNK         0.1003 
     66 C          38.6808   28.1462    5.1126 C.2       11 UNK         0.5709 
     67 N          39.4019   28.2292    4.0028 N.am      11 UNK        -0.7358 
     68 O          39.2246   28.1905    6.2152 O.2       11 UNK        -0.4999 
     69 C69        36.8015   26.4311    4.8714 C.3       12 UNK        -0.0954 
     70 S70        35.0258   26.1517    4.5573 S.3       12 UNK        -0.2268 
     71 C71        35.0564   25.6527    2.8103 C.3       12 UNK         0.0203 
     72 H72        26.1469   25.5377    6.9357 H         1 UNK         0.0888 
     73 H73        26.9733   27.0442    6.5326 H         1 UNK         0.0888 
     74 H74        25.2337   26.8968    6.2735 H         1 UNK         0.0888 
     75 H75        26.3137   23.9434    5.3877 H         1 UNK         0.3017 
     76 H76        26.6958   22.7922    3.5825 H         1 UNK         0.0873 
     77 H77        28.0875   23.6886    1.6605 H         1 UNK         0.0745 
     78 H78        28.1810   25.2315    2.4663 H         1 UNK         0.0745 
     79 H79        31.2992   22.3423    2.7205 H         1 UNK         0.0705 
     80 H80        30.1901   22.7875    1.4561 H         1 UNK         0.0705 
     81 H81        33.2228   23.6778    3.1850 H         1 UNK         0.1334 
     82 H82        33.7721   27.4319    1.1906 H         1 UNK         0.1417 
     83 H83        30.0574   25.3257    0.7981 H         1 UNK         0.1562 
     84 H84        31.9562   28.4892    0.0562 H         1 UNK         0.0748 
     85 H85        30.3546   27.9244    0.4509 H         1 UNK         0.0748 
     86 H86        30.2563   28.6810   -3.2860 H         1 UNK         0.0940 
     87 H87        30.0555   29.2947   -1.6784 H         1 UNK         0.0940 
     88 H88        27.8590   28.7948   -2.7755 H         1 UNK         0.0703 
     89 H89        28.1211   25.9468   -2.6068 H         1 UNK         0.3081 
     90 H90        26.8247   25.5196   -5.7881 H         1 UNK         0.0719 
     91 H91        29.6428   24.5357   -5.0660 H         1 UNK         0.0809 
     92 H92        28.5518   23.7765   -6.2274 H         1 UNK         0.0809 
     93 H93        29.2000   25.3765   -6.5447 H         1 UNK         0.0809 
     94 H94        27.7278   23.6877   -3.7458 H         1 UNK         0.2990 
     95 H95        24.8156   23.0797   -2.3740 H         1 UNK         0.0690 
     96 H96        26.6204   22.0822   -0.9755 H         1 UNK         0.0788 
     97 H97        27.7911   23.2287   -1.6079 H         1 UNK         0.0788 
     98 H98        27.0520   22.0242   -2.6704 H         1 UNK         0.0788 
     99 H99        26.2890   25.0290   -0.6339 H         1 UNK         0.2993 
    100 H100       24.6190   26.6600    0.4944 H         1 UNK         0.0949 
    101 H101       22.9903   26.4738    2.3747 H         1 UNK         0.0767 
    102 H102       22.2020   26.2015    0.8292 H         1 UNK         0.0767 
    103 H103       22.5753   24.8355    1.8722 H         1 UNK         0.0767 
    104 H104       25.9407   25.9706    2.1770 H         1 UNK         0.3013 
    105 H105       27.8456   29.6670   -0.5144 H         1 UNK         0.3121 
    106 H106       26.9467   27.6541    1.5002 H         1 UNK         0.0774 
    107 H107       26.2452   30.6362    1.2852 H         1 UNK         0.0815 
    108 H108       25.7166   29.5328    2.5496 H         1 UNK         0.0815 
    109 H109       25.1542   29.3045    0.9014 H         1 UNK         0.0815 
    110 H110       27.9935   27.7118    3.4626 H         1 UNK         0.2987 
    111 H111       30.6784   28.9144    3.5020 H         1 UNK         0.0949 
    112 H112       29.2747   27.0064    5.4420 H         1 UNK         0.0806 
    113 H113       30.3709   26.5449    4.1406 H         1 UNK         0.0806 
    114 H114       30.9685   27.4777    5.5018 H         1 UNK         0.0806 
    115 H115       29.3597   31.0393    3.4197 H         1 UNK         0.3010 
    116 H116       28.2900   32.1013    5.8878 H         1 UNK         0.0829 
    117 H117       27.5465   32.8918    3.6460 H         1 UNK         0.0813 
    118 H118       28.2032   34.2266    4.5785 H         1 UNK         0.0813 
    119 H119       29.1659   33.4991    3.2994 H         1 UNK         0.0813 
    120 H120       31.5081   31.6005    4.8705 H         1 UNK         0.3038 
    121 H121       32.5882   33.1807    7.0883 H         1 UNK         0.0769 
    122 H122       33.7049   33.2987    4.2164 H         1 UNK         0.0811 
    123 H123       34.4633   34.0055    5.6366 H         1 UNK         0.0811 
    124 H124       32.9334   34.6427    5.0567 H         1 UNK         0.0811 
    125 H125       34.7882   32.3549    7.5916 H         1 UNK         0.3204 
    126 H126       34.8179   29.5152    7.7661 H         1 UNK         0.0748 
    127 H127       37.0336   29.8940    8.8738 H         1 UNK         0.0771 
    128 H128       37.0165   31.5744    8.3592 H         1 UNK         0.0771 
    129 H129       35.8117   30.9847    9.5060 H         1 UNK         0.0771 
    130 H130       35.9497   27.9612    6.7061 H         1 UNK         0.2980 
    131 H131       36.8407   28.4142    4.0350 H         1 UNK         0.0545 
    132 H132       38.9691   28.1826    3.0935 H         1 UNK         0.3459 
    133 H133       40.4003   28.3482    4.0760 H         1 UNK         0.3459 
    134 H134       37.3836   25.9514    4.0822 H         1 UNK         0.0616 
    135 H135       37.0675   25.9171    5.7969 H         1 UNK         0.0616 
    136 H136       35.5574   24.6880    2.7173 H         1 UNK         0.0634 
    137 H137       35.6503   26.3693    2.2405 H         1 UNK         0.0634 
@<TRIPOS>BOND
     1    1    2 1    
     2    1   72 1    
     3    1   73 1    
     4    1   74 1    
     5    2    3 2    
     6    2    4 am   BACKBONE|DICT|INTERRES
     7    4    5 1    
     8    4   75 1    
     9    5    6 1    
    10    5   35 1    
    11    5   76 1    
    12    6    7 1    
    13    6   77 1    
    14    6   78 1    
    15    7    8 1    
    16    8    9 1    
    17    8   79 1    
    18    8   80 1    
    19    9   10 ar   
    20    9   14 ar   
    21   10   11 ar   
    22   10   81 1    
    23   11   12 ar   
    24   11   71 1    
    25   12   13 ar   
    26   12   82 1    
    27   13   14 ar   
    28   13   15 1    
    29   14   83 1    
    30   15   16 1    
    31   15   84 1    
    32   15   85 1    
    33   16   17 1    
    34   17   18 1    
    35   17   86 1    
    36   17   87 1    
    37   18   19 1    
    38   18   37 1    
    39   18   88 1    
    40   19   20 am   BACKBONE|DICT|INTERRES
    41   19   89 1    
    42   20   21 2    
    43   20   22 1    
    44   22   23 1    
    45   22   24 1    
    46   22   90 1    
    47   23   91 1    
    48   23   92 1    
    49   23   93 1    
    50   24   25 am   BACKBONE|DICT|INTERRES
    51   24   94 1    
    52   25   26 2    
    53   25   27 1    
    54   27   28 1    
    55   27   29 1    
    56   27   95 1    
    57   28   96 1    
    58   28   97 1    
    59   28   98 1    
    60   29   30 am   BACKBONE|DICT|INTERRES
    61   29   99 1    
    62   30   31 2    
    63   30   32 1    
    64   32   33 1    
    65   32   34 1    
    66   32  100 1    
    67   33  101 1    
    68   33  102 1    
    69   33  103 1    
    70   34   35 am   BACKBONE|DICT|INTERRES
    71   34  104 1    
    72   35   36 2    
    73   37   38 2    
    74   37   39 am   BACKBONE|DICT|INTERRES
    75   39   40 1    
    76   39  105 1    
    77   40   41 1    
    78   40   42 1    
    79   40  106 1    
    80   41  107 1    
    81   41  108 1    
    82   41  109 1    
    83   42   43 2    
    84   42   44 am   BACKBONE|DICT|INTERRES
    85   44   45 1    
    86   44  110 1    
    87   45   46 1    
    88   45   47 1    
    89   45  111 1    
    90   46  112 1    
    91   46  113 1    
    92   46  114 1    
    93   47   48 2    
    94   47   49 am   BACKBONE|DICT|INTERRES
    95   49   50 1    
    96   49  115 1    
    97   50   51 1    
    98   50   52 1    
    99   50  116 1    
   100   51  117 1    
   101   51  118 1    
   102   51  119 1    
   103   52   53 2    
   104   52   54 am   BACKBONE|DICT|INTERRES
   105   54   55 1    
   106   54  120 1    
   107   55   56 1    
   108   55   57 1    
   109   55  121 1    
   110   56  122 1    
   111   56  123 1    
   112   56  124 1    
   113   57   58 2    
   114   57   59 am   BACKBONE|DICT|INTERRES
   115   59   60 1    
   116   59  125 1    
   117   60   61 1    
   118   60   62 1    
   119   60  126 1    
   120   61  127 1    
   121   61  128 1    
   122   61  129 1    
   123   62   63 2    
   124   62   64 am   BACKBONE|DICT|INTERRES
   125   64   65 1    
   126   64  130 1    
   127   65   66 1    
   128   65   69 1    
   129   65  131 1    
   130   66   67 am   BACKBONE|DICT|INTERRES
   131   66   68 2    
   132   67  132 1    
   133   67  133 1    
   134   69   70 1    
   135   69  134 1    
   136   69  135 1    
   137   70   71 1    
   138   71  136 1    
   139   71  137 1    
@<TRIPOS>SUBSTRUCTURE
     1 UNK         1 GROUP             0       ****    0 ROOT    
