@<TRIPOS>MOLECULE
3R136
137   139    1
SMALL
USER_CHARGES


@<TRIPOS>ATOM
      1 CA         32.3663   22.7554   -3.7752 C.3       0 UNK        -0.1979 
      2 C          31.2688   23.7923   -3.5860 C.2       0 UNK         0.4864 
      3 O          30.8138   24.3875   -4.5642 O.2       0 UNK        -0.5359 
      4 N          30.8456   24.0166   -2.3357 N.am      1 UNK        -0.4318 
      5 CA         29.7693   24.9413   -1.9680 C.3       1 UNK         0.0824 
      6 C6         29.7617   25.2633   -0.4501 C.3       12 UNK        -0.0944 
      7 S7         31.3401   25.9671    0.1370 S.3       12 UNK        -0.2672 
      8 C8         32.1219   24.5378    0.9570 C.3       12 UNK         0.0333 
      9 C9         31.7057   24.4158    2.4162 C.ar      12 UNK        -0.0807 
     10 C10        32.4939   24.9877    3.4192 C.ar      12 UNK        -0.0894 
     11 C11        32.1225   24.8875    4.7629 C.ar      12 UNK        -0.0804 
     12 C12        30.9484   24.2079    5.1028 C.ar      12 UNK        -0.0824 
     13 C13        30.1609   23.6145    4.1101 C.ar      12 UNK        -0.0762 
     14 C14        30.5502   23.7140    2.7712 C.ar      12 UNK        -0.0782 
     15 C15        28.8928   22.8557    4.4771 C.3       12 UNK         0.0230 
     16 S16        27.3936   23.6948    3.8699 S.3       12 UNK        -0.2608 
     17 C17        27.4369   25.2481    4.8252 C.3       12 UNK        -0.0989 
     18 CA         27.9459   26.4401    3.9792 C.3       5 UNK         0.0716 
     19 N          27.0809   26.7072    2.8306 N.am      5 UNK        -0.4135 
     20 C          27.2888   27.6244    1.8789 C.2       4 UNK         0.5031 
     21 O          28.2821   28.3579    1.8392 O.2       4 UNK        -0.5229 
     22 CA         26.2001   27.7306    0.7916 C.3       4 UNK         0.0329 
     23 CB         26.6062   28.6480   -0.3752 C.3       4 UNK        -0.2001 
     24 N          25.8304   26.4287    0.2330 N.am      4 UNK        -0.4303 
     25 C          25.0215   25.5133    0.7821 C.2       3 UNK         0.5044 
     26 O          24.5125   25.6516    1.8952 O.2       3 UNK        -0.5152 
     27 CA         24.7715   24.2107   -0.0098 C.3       3 UNK         0.0319 
     28 CB         23.2662   23.9011   -0.1430 C.3       3 UNK        -0.2001 
     29 N          25.4504   24.1507   -1.3154 N.am      3 UNK        -0.4354 
     30 C          25.2275   24.8938   -2.4105 C.2       2 UNK         0.4964 
     31 O          24.3297   25.7314   -2.5029 O.2       2 UNK        -0.5047 
     32 CA         26.2477   24.7274   -3.5544 C.3       2 UNK         0.0288 
     33 CB         25.8759   25.5454   -4.8059 C.3       2 UNK        -0.2113 
     34 N          27.5960   25.1136   -3.1191 N.am      2 UNK        -0.4145 
     35 C          28.4136   24.3428   -2.3888 C.2       1 UNK         0.5006 
     36 O          28.1126   23.2075   -2.0089 O.2       1 UNK        -0.5103 
     37 C          28.0782   27.7028    4.8468 C.2       5 UNK         0.5055 
     38 O          27.0606   28.2503    5.2771 O.2       5 UNK        -0.5220 
     39 N          29.3251   28.1457    5.0523 N.am      6 UNK        -0.4450 
     40 CA         29.7219   29.3681    5.7608 C.3       6 UNK         0.0367 
     41 CB         29.3197   29.3042    7.2504 C.3       6 UNK        -0.1929 
     42 C          29.2884   30.6822    5.0782 C.2       6 UNK         0.5070 
     43 O          29.3453   31.7345    5.7166 O.2       6 UNK        -0.5237 
     44 N          28.8962   30.6163    3.7984 N.am      7 UNK        -0.4739 
     45 CA         28.5550   31.7727    2.9683 C.3       7 UNK         0.0276 
     46 CB         27.0775   31.6938    2.5504 C.3       7 UNK        -0.1927 
     47 C          29.4779   31.8541    1.7455 C.2       7 UNK         0.5013 
     48 O          29.9737   32.9389    1.4403 O.2       7 UNK        -0.5193 
     49 N          29.7179   30.7133    1.0834 N.am      8 UNK        -0.4253 
     50 CA         30.6037   30.5992   -0.0803 C.3       8 UNK         0.0242 
     51 CB         30.0117   29.5666   -1.0548 C.3       8 UNK        -0.2000 
     52 C          32.0546   30.2344    0.2869 C.2       8 UNK         0.4948 
     53 O          32.8710   30.0724   -0.6221 O.2       8 UNK        -0.5275 
     54 N          32.3622   30.0986    1.5828 N.am      9 UNK        -0.4246 
     55 CA         33.6672   29.6870    2.0926 C.3       9 UNK         0.0261 
     56 CB         33.6289   28.1828    2.4033 C.3       9 UNK        -0.1959 
     57 C          34.0356   30.4939    3.3408 C.2       9 UNK         0.5033 
     58 O          33.1552   31.0409    4.0112 O.2       9 UNK        -0.5390 
     59 N          35.3410   30.5097    3.6455 N.am      10 UNK        -0.4215 
     60 CA         35.9710   31.2371    4.7546 C.3       10 UNK         0.0240 
     61 CB         37.4992   31.1341    4.6115 C.3       10 UNK        -0.1982 
     62 C          35.5324   30.8000    6.1658 C.2       10 UNK         0.4970 
     63 O          35.8071   31.5253    7.1227 O.2       10 UNK        -0.4916 
     64 N          34.8543   29.6505    6.2779 N.am      11 UNK        -0.4279 
     65 CA         34.1668   29.1973    7.4955 C.3       11 UNK         0.1003 
     66 C          32.9620   30.0864    7.9332 C.2       11 UNK         0.5709 
     67 N          32.4671   30.9961    7.0996 N.am      11 UNK        -0.7358 
     68 O          32.4832   29.9578    9.0572 O.2       11 UNK        -0.4999 
     69 C69        33.7919   27.6923    7.4122 C.3       12 UNK        -0.0954 
     70 S70        32.6983   27.2789    6.0098 S.3       12 UNK        -0.2268 
     71 C71        33.0026   25.4972    5.8440 C.3       12 UNK         0.0203 
     72 H72        33.2360   23.2116   -4.2473 H         1 UNK         0.0888 
     73 H73        32.6846   22.3205   -2.8278 H         1 UNK         0.0888 
     74 H74        32.0133   21.9487   -4.4171 H         1 UNK         0.0888 
     75 H75        31.2367   23.4801   -1.5768 H         1 UNK         0.3017 
     76 H76        29.9281   25.8753   -2.5120 H         1 UNK         0.0873 
     77 H77        28.9816   25.9925   -0.2243 H         1 UNK         0.0745 
     78 H78        29.5154   24.3759    0.1323 H         1 UNK         0.0745 
     79 H79        33.2046   24.6560    0.8923 H         1 UNK         0.0705 
     80 H80        31.8894   23.6180    0.4196 H         1 UNK         0.0705 
     81 H81        33.4027   25.5094    3.1553 H         1 UNK         0.1334 
     82 H82        30.6558   24.1308    6.1412 H         1 UNK         0.1417 
     83 H83        29.9426   23.2464    2.0098 H         1 UNK         0.1562 
     84 H84        28.8166   22.7161    5.5566 H         1 UNK         0.0748 
     85 H85        28.9369   21.8558    4.0431 H         1 UNK         0.0748 
     86 H86        28.0603   25.1076    5.7104 H         1 UNK         0.0940 
     87 H87        26.4296   25.4459    5.1978 H         1 UNK         0.0940 
     88 H88        28.9312   26.1868    3.5817 H         1 UNK         0.0703 
     89 H89        26.2192   26.1737    2.7847 H         1 UNK         0.3081 
     90 H90        25.3211   28.1679    1.2698 H         1 UNK         0.0719 
     91 H91        27.4393   28.2273   -0.9374 H         1 UNK         0.0809 
     92 H92        25.7776   28.7921   -1.0690 H         1 UNK         0.0809 
     93 H93        26.9062   29.6364   -0.0275 H         1 UNK         0.0809 
     94 H94        26.1987   26.2191   -0.6814 H         1 UNK         0.2990 
     95 H95        25.2169   23.4143    0.5884 H         1 UNK         0.0690 
     96 H96        23.0988   22.9671   -0.6792 H         1 UNK         0.0788 
     97 H97        22.7314   24.6922   -0.6692 H         1 UNK         0.0788 
     98 H98        22.8015   23.7973    0.8384 H         1 UNK         0.0788 
     99 H99        26.2539   23.5287   -1.3550 H         1 UNK         0.2993 
    100 H100       26.2503   23.6719   -3.8369 H         1 UNK         0.0949 
    101 H101       25.8627   26.6170   -4.6020 H         1 UNK         0.0767 
    102 H102       26.5804   25.3675   -5.6187 H         1 UNK         0.0767 
    103 H103       24.8857   25.2704   -5.1722 H         1 UNK         0.0767 
    104 H104       27.9068   26.0351   -3.3928 H         1 UNK         0.3013 
    105 H105       30.0897   27.6181    4.6521 H         1 UNK         0.3121 
    106 H106       30.8089   29.3859    5.7157 H         1 UNK         0.0774 
    107 H107       29.7309   30.1469    7.8065 H         1 UNK         0.0815 
    108 H108       28.2382   29.3303    7.3832 H         1 UNK         0.0815 
    109 H109       29.6978   28.3971    7.7218 H         1 UNK         0.0815 
    110 H110       28.8497   29.7081    3.3505 H         1 UNK         0.2987 
    111 H111       28.6927   32.7004    3.5284 H         1 UNK         0.0949 
    112 H112       26.8126   32.5180    1.8867 H         1 UNK         0.0806 
    113 H113       26.8496   30.7652    2.0292 H         1 UNK         0.0806 
    114 H114       26.4221   31.7535    3.4194 H         1 UNK         0.0806 
    115 H115       29.2522   29.8565    1.3775 H         1 UNK         0.3010 
    116 H116       30.6469   31.5575   -0.6023 H         1 UNK         0.0829 
    117 H117       29.0476   29.9007   -1.4362 H         1 UNK         0.0813 
    118 H118       30.6584   29.4162   -1.9202 H         1 UNK         0.0813 
    119 H119       29.8756   28.5959   -0.5770 H         1 UNK         0.0813 
    120 H120       31.6770   30.3404    2.2854 H         1 UNK         0.3038 
    121 H121       34.4385   29.8768    1.3429 H         1 UNK         0.0769 
    122 H122       34.5564   27.8399    2.8632 H         1 UNK         0.0811 
    123 H123       32.8116   27.9386    3.0822 H         1 UNK         0.0811 
    124 H124       33.4877   27.6008    1.4928 H         1 UNK         0.0811 
    125 H125       35.9736   30.0074    3.0385 H         1 UNK         0.3204 
    126 H126       35.6896   32.2873    4.6524 H         1 UNK         0.0748 
    127 H127       38.0063   31.6984    5.3957 H         1 UNK         0.0771 
    128 H128       37.8421   30.1008    4.6810 H         1 UNK         0.0771 
    129 H129       37.8382   31.5387    3.6575 H         1 UNK         0.0771 
    130 H130       34.6564   29.1220    5.4425 H         1 UNK         0.2980 
    131 H131       34.8916   29.2890    8.3065 H         1 UNK         0.0545 
    132 H132       31.6946   31.5710    7.3949 H         1 UNK         0.3459 
    133 H133       32.8290   31.0850    6.1584 H         1 UNK         0.3459 
    134 H134       33.3143   27.3604    8.3359 H         1 UNK         0.0616 
    135 H135       34.7051   27.1020    7.3226 H         1 UNK         0.0616 
    136 H136       34.0537   25.3301    5.6038 H         1 UNK         0.0634 
    137 H137       32.8211   25.0102    6.8034 H         1 UNK         0.0634 
@<TRIPOS>BOND
     1    1    2 1    
     2    1   72 1    
     3    1   73 1    
     4    1   74 1    
     5    2    3 2    
     6    2    4 am   BACKBONE|DICT|INTERRES
     7    4    5 1    
     8    4   75 1    
     9    5    6 1    
    10    5   35 1    
    11    5   76 1    
    12    6    7 1    
    13    6   77 1    
    14    6   78 1    
    15    7    8 1    
    16    8    9 1    
    17    8   79 1    
    18    8   80 1    
    19    9   10 ar   
    20    9   14 ar   
    21   10   11 ar   
    22   10   81 1    
    23   11   12 ar   
    24   11   71 1    
    25   12   13 ar   
    26   12   82 1    
    27   13   14 ar   
    28   13   15 1    
    29   14   83 1    
    30   15   16 1    
    31   15   84 1    
    32   15   85 1    
    33   16   17 1    
    34   17   18 1    
    35   17   86 1    
    36   17   87 1    
    37   18   19 1    
    38   18   37 1    
    39   18   88 1    
    40   19   20 am   BACKBONE|DICT|INTERRES
    41   19   89 1    
    42   20   21 2    
    43   20   22 1    
    44   22   23 1    
    45   22   24 1    
    46   22   90 1    
    47   23   91 1    
    48   23   92 1    
    49   23   93 1    
    50   24   25 am   BACKBONE|DICT|INTERRES
    51   24   94 1    
    52   25   26 2    
    53   25   27 1    
    54   27   28 1    
    55   27   29 1    
    56   27   95 1    
    57   28   96 1    
    58   28   97 1    
    59   28   98 1    
    60   29   30 am   BACKBONE|DICT|INTERRES
    61   29   99 1    
    62   30   31 2    
    63   30   32 1    
    64   32   33 1    
    65   32   34 1    
    66   32  100 1    
    67   33  101 1    
    68   33  102 1    
    69   33  103 1    
    70   34   35 am   BACKBONE|DICT|INTERRES
    71   34  104 1    
    72   35   36 2    
    73   37   38 2    
    74   37   39 am   BACKBONE|DICT|INTERRES
    75   39   40 1    
    76   39  105 1    
    77   40   41 1    
    78   40   42 1    
    79   40  106 1    
    80   41  107 1    
    81   41  108 1    
    82   41  109 1    
    83   42   43 2    
    84   42   44 am   BACKBONE|DICT|INTERRES
    85   44   45 1    
    86   44  110 1    
    87   45   46 1    
    88   45   47 1    
    89   45  111 1    
    90   46  112 1    
    91   46  113 1    
    92   46  114 1    
    93   47   48 2    
    94   47   49 am   BACKBONE|DICT|INTERRES
    95   49   50 1    
    96   49  115 1    
    97   50   51 1    
    98   50   52 1    
    99   50  116 1    
   100   51  117 1    
   101   51  118 1    
   102   51  119 1    
   103   52   53 2    
   104   52   54 am   BACKBONE|DICT|INTERRES
   105   54   55 1    
   106   54  120 1    
   107   55   56 1    
   108   55   57 1    
   109   55  121 1    
   110   56  122 1    
   111   56  123 1    
   112   56  124 1    
   113   57   58 2    
   114   57   59 am   BACKBONE|DICT|INTERRES
   115   59   60 1    
   116   59  125 1    
   117   60   61 1    
   118   60   62 1    
   119   60  126 1    
   120   61  127 1    
   121   61  128 1    
   122   61  129 1    
   123   62   63 2    
   124   62   64 am   BACKBONE|DICT|INTERRES
   125   64   65 1    
   126   64  130 1    
   127   65   66 1    
   128   65   69 1    
   129   65  131 1    
   130   66   67 am   BACKBONE|DICT|INTERRES
   131   66   68 2    
   132   67  132 1    
   133   67  133 1    
   134   69   70 1    
   135   69  134 1    
   136   69  135 1    
   137   70   71 1    
   138   71  136 1    
   139   71  137 1    
@<TRIPOS>SUBSTRUCTURE
     1 UNK         1 GROUP             0       ****    0 ROOT    
