@<TRIPOS>MOLECULE
3R136
137   139    1
SMALL
USER_CHARGES


@<TRIPOS>ATOM
      1 CA         27.5667   19.7824    2.8727 C.3       0 UNK        -0.1979 
      2 C          27.7865   20.4239    1.5111 C.2       0 UNK         0.4864 
      3 O          27.6834   19.7452    0.4877 O.2       0 UNK        -0.5359 
      4 N          28.0701   21.7326    1.4830 N.am      1 UNK        -0.4318 
      5 CA         28.3599   22.5289    0.2814 C.3       1 UNK         0.0824 
      6 C6         29.2065   23.7801    0.6260 C.3       12 UNK        -0.0944 
      7 S7         30.8575   23.3485    1.2677 S.3       12 UNK        -0.2672 
      8 C8         30.7120   23.7774    3.0318 C.3       12 UNK         0.0333 
      9 C9         30.7364   25.2825    3.2572 C.ar      12 UNK        -0.0807 
     10 C10        31.9359   25.9870    3.1171 C.ar      12 UNK        -0.0894 
     11 C11        31.9797   27.3649    3.3432 C.ar      12 UNK        -0.0804 
     12 C12        30.8115   28.0405    3.7034 C.ar      12 UNK        -0.0824 
     13 C13        29.6052   27.3487    3.8489 C.ar      12 UNK        -0.0762 
     14 C14        29.5750   25.9670    3.6323 C.ar      12 UNK        -0.0782 
     15 C15        28.3411   28.1014    4.2501 C.3       12 UNK         0.0230 
     16 S16        27.0455   28.0586    2.9650 S.3       12 UNK        -0.2608 
     17 C17        27.9541   28.6271    1.4880 C.3       12 UNK        -0.0989 
     18 CA         28.1273   27.4697    0.4688 C.3       5 UNK         0.0716 
     19 N          26.8856   27.0221   -0.1755 N.am      5 UNK        -0.4135 
     20 C          25.9728   27.7611   -0.8270 C.2       4 UNK         0.5031 
     21 O          26.0105   28.9864   -0.9450 O.2       4 UNK        -0.5229 
     22 CA         24.7924   27.0048   -1.4542 C.3       4 UNK         0.0329 
     23 CB         25.1281   26.6055   -2.9010 C.3       4 UNK        -0.2001 
     24 N          24.4592   25.7978   -0.6995 N.am      4 UNK        -0.4303 
     25 C          23.4126   25.6486    0.1243 C.2       3 UNK         0.5044 
     26 O          22.6047   26.5465    0.3678 O.2       3 UNK        -0.5152 
     27 CA         23.2387   24.2656    0.7978 C.3       3 UNK         0.0319 
     28 CB         21.7560   23.8644    0.9508 C.3       3 UNK        -0.2001 
     29 N          24.0159   23.1946    0.1544 N.am      3 UNK        -0.4354 
     30 C          23.9095   22.7559   -1.1108 C.2       2 UNK         0.4964 
     31 O          22.9860   23.0668   -1.8642 O.2       2 UNK        -0.5047 
     32 CA         25.0510   21.8651   -1.6496 C.3       2 UNK         0.0288 
     33 CB         25.3927   22.2123   -3.1145 C.3       2 UNK        -0.2113 
     34 N          26.2856   21.8581   -0.8466 N.am      2 UNK        -0.4145 
     35 C          27.0681   22.8896   -0.4895 C.2       1 UNK         0.5006 
     36 O          26.7859   24.0724   -0.7092 O.2       1 UNK        -0.5103 
     37 C          29.2385   27.7493   -0.5618 C.2       5 UNK         0.5055 
     38 O          28.9979   28.3723   -1.5977 O.2       5 UNK        -0.5220 
     39 N          30.4500   27.2625   -0.2566 N.am      6 UNK        -0.4450 
     40 CA         31.6306   27.3812   -1.1188 C.3       6 UNK         0.0367 
     41 CB         32.6708   26.3330   -0.6916 C.3       6 UNK        -0.1929 
     42 C          32.2543   28.7883   -1.1115 C.2       6 UNK         0.5070 
     43 O          32.8940   29.1713   -2.0913 O.2       6 UNK        -0.5237 
     44 N          32.0609   29.5241   -0.0134 N.am      7 UNK        -0.4739 
     45 CA         32.5206   30.8884    0.2315 C.3       7 UNK         0.0276 
     46 CB         34.0518   30.9192    0.4431 C.3       7 UNK        -0.1927 
     47 C          31.7412   31.4194    1.4454 C.2       7 UNK         0.5013 
     48 O          30.7274   30.8246    1.8216 O.2       7 UNK        -0.5193 
     49 N          32.2253   32.5048    2.0616 N.am      8 UNK        -0.4253 
     50 CA         31.7320   32.9931    3.3521 C.3       8 UNK         0.0242 
     51 CB         32.3603   34.3647    3.6476 C.3       8 UNK        -0.2000 
     52 C          32.0668   31.9988    4.4773 C.2       8 UNK         0.4948 
     53 O          33.1244   31.3689    4.4335 O.2       8 UNK        -0.5275 
     54 N          31.1936   31.9123    5.4901 N.am      9 UNK        -0.4246 
     55 CA         31.2804   30.9754    6.6228 C.3       9 UNK         0.0261 
     56 CB         29.9997   31.0963    7.4657 C.3       9 UNK        -0.1959 
     57 C          32.5355   31.1071    7.5138 C.2       9 UNK         0.5033 
     58 O          32.7729   30.2342    8.3493 O.2       9 UNK        -0.5390 
     59 N          33.3238   32.1713    7.3154 N.am      10 UNK        -0.4215 
     60 CA         34.6439   32.3838    7.9108 C.3       10 UNK         0.0240 
     61 CB         35.0113   33.8711    7.7655 C.3       10 UNK        -0.1982 
     62 C          35.7534   31.4878    7.3160 C.2       10 UNK         0.4970 
     63 O          36.8696   31.5212    7.8368 O.2       10 UNK        -0.4916 
     64 N          35.4571   30.7354    6.2441 N.am      11 UNK        -0.4279 
     65 CA         36.3565   29.7778    5.5794 C.3       11 UNK         0.1003 
     66 C          37.0098   28.7212    6.5209 C.2       11 UNK         0.5709 
     67 N          38.1929   28.2328    6.1707 N.am      11 UNK        -0.7358 
     68 O          36.4490   28.3163    7.5381 O.2       11 UNK        -0.4999 
     69 C69        35.6637   29.1073    4.3603 C.3       12 UNK        -0.0954 
     70 S70        34.1957   28.1075    4.7916 S.3       12 UNK        -0.2268 
     71 C71        33.2903   28.1228    3.2173 C.3       12 UNK         0.0203 
     72 H72        26.5615   19.3664    2.9339 H         1 UNK         0.0888 
     73 H73        28.2805   18.9732    3.0244 H         1 UNK         0.0888 
     74 H74        27.6884   20.4980    3.6856 H         1 UNK         0.0888 
     75 H75        28.1121   22.2388    2.3549 H         1 UNK         0.3017 
     76 H76        28.9522   21.9142   -0.4004 H         1 UNK         0.0873 
     77 H77        28.6781   24.4003    1.3491 H         1 UNK         0.0745 
     78 H78        29.3628   24.3971   -0.2611 H         1 UNK         0.0745 
     79 H79        29.8070   23.3323    3.4467 H         1 UNK         0.0705 
     80 H80        31.5457   23.3241    3.5700 H         1 UNK         0.0705 
     81 H81        32.8390   25.4585    2.8424 H         1 UNK         0.1334 
     82 H82        30.8469   29.1076    3.8766 H         1 UNK         0.1417 
     83 H83        28.6436   25.4305    3.7527 H         1 UNK         0.1562 
     84 H84        28.5691   29.1439    4.4789 H         1 UNK         0.0748 
     85 H85        27.9429   27.6681    5.1685 H         1 UNK         0.0748 
     86 H86        28.9229   29.0152    1.7991 H         1 UNK         0.0940 
     87 H87        27.4375   29.4824    1.0534 H         1 UNK         0.0940 
     88 H88        28.4611   26.6033    1.0364 H         1 UNK         0.0703 
     89 H89        26.7692   26.0154   -0.2104 H         1 UNK         0.3081 
     90 H90        23.9352   27.6812   -1.4775 H         1 UNK         0.0719 
     91 H91        25.3654   27.4837   -3.5031 H         1 UNK         0.0809 
     92 H92        25.9879   25.9354   -2.9467 H         1 UNK         0.0809 
     93 H93        24.2865   26.1021   -3.3774 H         1 UNK         0.0809 
     94 H94        25.0948   25.0136   -0.8090 H         1 UNK         0.2990 
     95 H95        23.6533   24.3727    1.8012 H         1 UNK         0.0690 
     96 H96        21.6557   22.8892    1.4271 H         1 UNK         0.0788 
     97 H97        21.2443   23.8232   -0.0110 H         1 UNK         0.0788 
     98 H98        21.2186   24.5827    1.5712 H         1 UNK         0.0788 
     99 H99        24.8100   22.8638    0.6838 H         1 UNK         0.2993 
    100 H100       24.6673   20.8439   -1.6282 H         1 UNK         0.0949 
    101 H101       25.7312   23.2442   -3.2153 H         1 UNK         0.0767 
    102 H102       26.1773   21.5630   -3.5033 H         1 UNK         0.0767 
    103 H103       24.5253   22.0891   -3.7644 H         1 UNK         0.0767 
    104 H104       26.6118   20.9387   -0.5544 H         1 UNK         0.3013 
    105 H105       30.5790   26.7684    0.6160 H         1 UNK         0.3121 
    106 H106       31.3304   27.1613   -2.1457 H         1 UNK         0.0774 
    107 H107       33.0080   26.4907    0.3330 H         1 UNK         0.0815 
    108 H108       32.2685   25.3222   -0.7615 H         1 UNK         0.0815 
    109 H109       33.5518   26.3743   -1.3335 H         1 UNK         0.0815 
    110 H110       31.4554   29.1684    0.7163 H         1 UNK         0.2987 
    111 H111       32.2577   31.5055   -0.6300 H         1 UNK         0.0949 
    112 H112       34.5833   30.4671   -0.3940 H         1 UNK         0.0806 
    113 H113       34.4228   31.9407    0.5285 H         1 UNK         0.0806 
    114 H114       34.3475   30.3866    1.3469 H         1 UNK         0.0806 
    115 H115       33.0792   32.9183    1.7182 H         1 UNK         0.3010 
    116 H116       30.6475   33.1051    3.2861 H         1 UNK         0.0829 
    117 H117       33.4466   34.3026    3.7298 H         1 UNK         0.0813 
    118 H118       31.9853   34.7746    4.5864 H         1 UNK         0.0813 
    119 H119       32.1240   35.0863    2.8652 H         1 UNK         0.0813 
    120 H120       30.3677   32.4935    5.4604 H         1 UNK         0.3038 
    121 H121       31.3130   29.9682    6.2018 H         1 UNK         0.0769 
    122 H122       29.1104   30.8851    6.8714 H         1 UNK         0.0811 
    123 H123       29.8918   32.0938    7.8935 H         1 UNK         0.0811 
    124 H124       30.0060   30.3860    8.2939 H         1 UNK         0.0811 
    125 H125       33.0469   32.8218    6.5953 H         1 UNK         0.3204 
    126 H126       34.5793   32.1494    8.9754 H         1 UNK         0.0748 
    127 H127       35.0948   34.1656    6.7184 H         1 UNK         0.0771 
    128 H128       34.2666   34.5124    8.2376 H         1 UNK         0.0771 
    129 H129       35.9685   34.0876    8.2420 H         1 UNK         0.0771 
    130 H130       34.5279   30.7984    5.8429 H         1 UNK         0.2980 
    131 H131       37.1746   30.3848    5.1874 H         1 UNK         0.0545 
    132 H132       38.6281   27.5386    6.7579 H         1 UNK         0.3459 
    133 H133       38.6603   28.5447    5.3338 H         1 UNK         0.3459 
    134 H134       36.3668   28.4712    3.8200 H         1 UNK         0.0616 
    135 H135       35.3620   29.8803    3.6520 H         1 UNK         0.0616 
    136 H136       33.0947   29.1537    2.9250 H         1 UNK         0.0634 
    137 H137       33.9105   27.6859    2.4335 H         1 UNK         0.0634 
@<TRIPOS>BOND
     1    1    2 1    
     2    1   72 1    
     3    1   73 1    
     4    1   74 1    
     5    2    3 2    
     6    2    4 am   BACKBONE|DICT|INTERRES
     7    4    5 1    
     8    4   75 1    
     9    5    6 1    
    10    5   35 1    
    11    5   76 1    
    12    6    7 1    
    13    6   77 1    
    14    6   78 1    
    15    7    8 1    
    16    8    9 1    
    17    8   79 1    
    18    8   80 1    
    19    9   10 ar   
    20    9   14 ar   
    21   10   11 ar   
    22   10   81 1    
    23   11   12 ar   
    24   11   71 1    
    25   12   13 ar   
    26   12   82 1    
    27   13   14 ar   
    28   13   15 1    
    29   14   83 1    
    30   15   16 1    
    31   15   84 1    
    32   15   85 1    
    33   16   17 1    
    34   17   18 1    
    35   17   86 1    
    36   17   87 1    
    37   18   19 1    
    38   18   37 1    
    39   18   88 1    
    40   19   20 am   BACKBONE|DICT|INTERRES
    41   19   89 1    
    42   20   21 2    
    43   20   22 1    
    44   22   23 1    
    45   22   24 1    
    46   22   90 1    
    47   23   91 1    
    48   23   92 1    
    49   23   93 1    
    50   24   25 am   BACKBONE|DICT|INTERRES
    51   24   94 1    
    52   25   26 2    
    53   25   27 1    
    54   27   28 1    
    55   27   29 1    
    56   27   95 1    
    57   28   96 1    
    58   28   97 1    
    59   28   98 1    
    60   29   30 am   BACKBONE|DICT|INTERRES
    61   29   99 1    
    62   30   31 2    
    63   30   32 1    
    64   32   33 1    
    65   32   34 1    
    66   32  100 1    
    67   33  101 1    
    68   33  102 1    
    69   33  103 1    
    70   34   35 am   BACKBONE|DICT|INTERRES
    71   34  104 1    
    72   35   36 2    
    73   37   38 2    
    74   37   39 am   BACKBONE|DICT|INTERRES
    75   39   40 1    
    76   39  105 1    
    77   40   41 1    
    78   40   42 1    
    79   40  106 1    
    80   41  107 1    
    81   41  108 1    
    82   41  109 1    
    83   42   43 2    
    84   42   44 am   BACKBONE|DICT|INTERRES
    85   44   45 1    
    86   44  110 1    
    87   45   46 1    
    88   45   47 1    
    89   45  111 1    
    90   46  112 1    
    91   46  113 1    
    92   46  114 1    
    93   47   48 2    
    94   47   49 am   BACKBONE|DICT|INTERRES
    95   49   50 1    
    96   49  115 1    
    97   50   51 1    
    98   50   52 1    
    99   50  116 1    
   100   51  117 1    
   101   51  118 1    
   102   51  119 1    
   103   52   53 2    
   104   52   54 am   BACKBONE|DICT|INTERRES
   105   54   55 1    
   106   54  120 1    
   107   55   56 1    
   108   55   57 1    
   109   55  121 1    
   110   56  122 1    
   111   56  123 1    
   112   56  124 1    
   113   57   58 2    
   114   57   59 am   BACKBONE|DICT|INTERRES
   115   59   60 1    
   116   59  125 1    
   117   60   61 1    
   118   60   62 1    
   119   60  126 1    
   120   61  127 1    
   121   61  128 1    
   122   61  129 1    
   123   62   63 2    
   124   62   64 am   BACKBONE|DICT|INTERRES
   125   64   65 1    
   126   64  130 1    
   127   65   66 1    
   128   65   69 1    
   129   65  131 1    
   130   66   67 am   BACKBONE|DICT|INTERRES
   131   66   68 2    
   132   67  132 1    
   133   67  133 1    
   134   69   70 1    
   135   69  134 1    
   136   69  135 1    
   137   70   71 1    
   138   71  136 1    
   139   71  137 1    
@<TRIPOS>SUBSTRUCTURE
     1 UNK         1 GROUP             0       ****    0 ROOT    
