@<TRIPOS>MOLECULE
3R136
137   139    1
SMALL
USER_CHARGES


@<TRIPOS>ATOM
      1 CA         25.4922   20.7393    3.6196 C.3       0 UNK        -0.1979 
      2 C          26.2723   21.6397    2.6733 C.2       0 UNK         0.4864 
      3 O          25.8481   21.8453    1.5359 O.2       0 UNK        -0.5359 
      4 N          27.4109   22.1757    3.1336 N.am      1 UNK        -0.4318 
      5 CA         28.2907   23.0605    2.3578 C.3       1 UNK         0.0824 
      6 C6         29.7047   23.1814    2.9799 C.3       12 UNK        -0.0944 
      7 S7         30.4993   21.5723    3.3136 S.3       12 UNK        -0.2672 
      8 C8         31.3759   21.2352    1.7494 C.3       12 UNK         0.0333 
      9 C9         32.4171   22.2891    1.3831 C.ar      12 UNK        -0.0807 
     10 C10        33.3395   22.7541    2.3271 C.ar      12 UNK        -0.0894 
     11 C11        34.2911   23.7183    1.9803 C.ar      12 UNK        -0.0804 
     12 C12        34.3256   24.2111    0.6722 C.ar      12 UNK        -0.0824 
     13 C13        33.4141   23.7500   -0.2824 C.ar      12 UNK        -0.0762 
     14 C14        32.4674   22.7864    0.0779 C.ar      12 UNK        -0.0782 
     15 C15        33.4561   24.2859   -1.7066 C.3       12 UNK         0.0230 
     16 S16        32.6086   25.8898   -1.8569 S.3       12 UNK        -0.2608 
     17 C17        30.8818   25.4195   -1.4991 C.3       12 UNK        -0.0989 
     18 CA         29.8963   26.6151   -1.5389 C.3       5 UNK         0.0716 
     19 N          28.5067   26.1728   -1.4684 N.am      5 UNK        -0.4135 
     20 C          27.7826   25.7431   -2.5079 C.2       4 UNK         0.5031 
     21 O          28.2117   25.6615   -3.6597 O.2       4 UNK        -0.5229 
     22 CA         26.3266   25.3369   -2.2179 C.3       4 UNK         0.0329 
     23 CB         26.2510   23.8532   -1.8226 C.3       4 UNK        -0.2001 
     24 N          25.7099   26.1468   -1.1662 N.am      4 UNK        -0.4303 
     25 C          25.4263   27.4529   -1.2565 C.2       3 UNK         0.5044 
     26 O          25.5712   28.1101   -2.2877 O.2       3 UNK        -0.5152 
     27 CA         24.9319   28.1648    0.0165 C.3       3 UNK         0.0319 
     28 CB         23.3923   28.1941    0.0861 C.3       3 UNK        -0.2001 
     29 N          25.5333   27.6585    1.2593 N.am      3 UNK        -0.4354 
     30 C          25.3394   26.4828    1.8709 C.2       2 UNK         0.4964 
     31 O          24.5589   25.6152    1.4752 O.2       2 UNK        -0.5047 
     32 CA         26.1903   26.2183    3.1220 C.3       2 UNK         0.0288 
     33 CB         25.3374   26.3441    4.3942 C.3       2 UNK        -0.2113 
     34 N          26.8215   24.8977    3.0914 N.am      2 UNK        -0.4145 
     35 C          27.6967   24.4713    2.1674 C.2       1 UNK         0.5006 
     36 O          28.0765   25.1575    1.2157 O.2       1 UNK        -0.5103 
     37 C          30.1695   27.6430   -0.4271 C.2       5 UNK         0.5055 
     38 O          30.6283   28.7481   -0.7224 O.2       5 UNK        -0.5220 
     39 N          29.8949   27.2613    0.8271 N.am      6 UNK        -0.4450 
     40 CA         30.1722   28.0695    2.0123 C.3       6 UNK         0.0367 
     41 CB         30.3153   27.1411    3.2307 C.3       6 UNK        -0.1929 
     42 C          29.0891   29.1320    2.2531 C.2       6 UNK         0.5070 
     43 O          27.9486   28.9706    1.8124 O.2       6 UNK        -0.5237 
     44 N          29.4612   30.1838    2.9844 N.am      7 UNK        -0.4739 
     45 CA         28.5961   31.2923    3.3831 C.3       7 UNK         0.0276 
     46 CB         28.6770   32.4067    2.3191 C.3       7 UNK        -0.1927 
     47 C          28.9863   31.7645    4.7943 C.2       7 UNK         0.5013 
     48 O          29.6132   31.0106    5.5426 O.2       7 UNK        -0.5193 
     49 N          28.6281   33.0096    5.1421 N.am      8 UNK        -0.4253 
     50 CA         28.9291   33.6494    6.4313 C.3       8 UNK         0.0242 
     51 CB         28.2251   35.0146    6.4958 C.3       8 UNK        -0.2000 
     52 C          30.4345   33.8068    6.7255 C.2       8 UNK         0.4948 
     53 O          30.8206   33.8392    7.8938 O.2       8 UNK        -0.5275 
     54 N          31.2558   33.8627    5.6683 N.am      9 UNK        -0.4246 
     55 CA         32.7205   33.8741    5.7223 C.3       9 UNK         0.0261 
     56 CB         33.2458   34.7230    4.5494 C.3       9 UNK        -0.1959 
     57 C          33.3301   32.4544    5.7111 C.2       9 UNK         0.5033 
     58 O          34.5104   32.3131    5.3835 O.2       9 UNK        -0.5390 
     59 N          32.5263   31.4291    6.0364 N.am      10 UNK        -0.4215 
     60 CA         32.8279   29.9979    5.9420 C.3       10 UNK         0.0240 
     61 CB         33.9776   29.5903    6.8934 C.3       10 UNK        -0.1982 
     62 C          33.0275   29.5911    4.4714 C.2       10 UNK         0.4970 
     63 O          32.2650   30.0536    3.6211 O.2       10 UNK        -0.4916 
     64 N          34.0198   28.7395    4.1926 N.am      11 UNK        -0.4279 
     65 CA         34.3661   28.2529    2.8464 C.3       11 UNK         0.1003 
     66 C          34.9294   29.3373    1.8772 C.2       11 UNK         0.5709 
     67 N          35.2461   30.5459    2.3289 N.am      11 UNK        -0.7358 
     68 O          35.0829   29.0736    0.6874 O.2       11 UNK        -0.4999 
     69 C69        35.3219   27.0325    2.9156 C.3       12 UNK        -0.0954 
     70 S70        34.6690   25.6587    3.9257 S.3       12 UNK        -0.2268 
     71 C71        35.2886   24.2056    3.0208 C.3       12 UNK         0.0203 
     72 H72        25.3882   19.7438    3.1889 H         1 UNK         0.0888 
     73 H73        24.4947   21.1449    3.7861 H         1 UNK         0.0888 
     74 H74        25.9842   20.6399    4.5871 H         1 UNK         0.0888 
     75 H75        27.7347   21.9423    4.0620 H         1 UNK         0.3017 
     76 H76        28.4003   22.6289    1.3604 H         1 UNK         0.0873 
     77 H77        29.6568   23.7167    3.9305 H         1 UNK         0.0745 
     78 H78        30.3555   23.7792    2.3389 H         1 UNK         0.0745 
     79 H79        31.8741   20.2685    1.8307 H         1 UNK         0.0705 
     80 H80        30.6331   21.1327    0.9567 H         1 UNK         0.0705 
     81 H81        33.3129   22.3684    3.3371 H         1 UNK         0.1334 
     82 H82        35.0602   24.9534    0.3927 H         1 UNK         0.1417 
     83 H83        31.7650   22.4265   -0.6619 H         1 UNK         0.1562 
     84 H84        33.0094   23.5732   -2.4017 H         1 UNK         0.0748 
     85 H85        34.4940   24.4055   -2.0210 H         1 UNK         0.0748 
     86 H86        30.8313   24.9251   -0.5279 H         1 UNK         0.0940 
     87 H87        30.5864   24.6704   -2.2355 H         1 UNK         0.0940 
     88 H88        30.0327   27.1382   -2.4884 H         1 UNK         0.0703 
     89 H89        28.0844   26.1599   -0.5463 H         1 UNK         0.3081 
     90 H90        25.7515   25.4798   -3.1351 H         1 UNK         0.0719 
     91 H91        26.7882   23.6525   -0.8945 H         1 UNK         0.0809 
     92 H92        25.2186   23.5310   -1.6852 H         1 UNK         0.0809 
     93 H93        26.6875   23.2199   -2.5962 H         1 UNK         0.0809 
     94 H94        25.5023   25.6867   -0.2856 H         1 UNK         0.2990 
     95 H95        25.2726   29.1987   -0.0606 H         1 UNK         0.0690 
     96 H96        23.0453   28.7334    0.9674 H         1 UNK         0.0788 
     97 H97        22.9625   27.1926    0.1132 H         1 UNK         0.0788 
     98 H98        22.9762   28.6979   -0.7873 H         1 UNK         0.0788 
     99 H99        26.2932   28.2422    1.6114 H         1 UNK         0.2993 
    100 H100       26.9878   26.9601    3.1732 H         1 UNK         0.0949 
    101 H101       24.8728   27.3293    4.4557 H         1 UNK         0.0767 
    102 H102       24.5364   25.6037    4.4172 H         1 UNK         0.0767 
    103 H103       25.9413   26.2156    5.2927 H         1 UNK         0.0767 
    104 H104       26.5502   24.2517    3.8172 H         1 UNK         0.3013 
    105 H105       29.4155   26.3791    0.9869 H         1 UNK         0.3121 
    106 H106       31.1228   28.5815    1.8543 H         1 UNK         0.0774 
    107 H107       31.1139   26.4133    3.0828 H         1 UNK         0.0815 
    108 H108       29.3956   26.5956    3.4373 H         1 UNK         0.0815 
    109 H109       30.5609   27.7091    4.1287 H         1 UNK         0.0815 
    110 H110       30.4113   30.2123    3.3525 H         1 UNK         0.2987 
    111 H111       27.5642   30.9402    3.4493 H         1 UNK         0.0949 
    112 H112       29.6714   32.8534    2.2785 H         1 UNK         0.0806 
    113 H113       28.4508   32.0173    1.3261 H         1 UNK         0.0806 
    114 H114       27.9588   33.2040    2.5114 H         1 UNK         0.0806 
    115 H115       28.1097   33.5638    4.4756 H         1 UNK         0.3010 
    116 H116       28.5143   33.0137    7.2166 H         1 UNK         0.0829 
    117 H117       27.1451   34.9110    6.3894 H         1 UNK         0.0813 
    118 H118       28.4076   35.5030    7.4543 H         1 UNK         0.0813 
    119 H119       28.5780   35.6893    5.7148 H         1 UNK         0.0813 
    120 H120       30.8431   33.8212    4.7477 H         1 UNK         0.3038 
    121 H121       33.0427   34.3497    6.6509 H         1 UNK         0.0769 
    122 H122       33.0083   34.2699    3.5861 H         1 UNK         0.0811 
    123 H123       34.3298   34.8349    4.5984 H         1 UNK         0.0811 
    124 H124       32.8208   35.7269    4.5637 H         1 UNK         0.0811 
    125 H125       31.5476   31.6344    6.2012 H         1 UNK         0.3204 
    126 H126       31.9271   29.4800    6.2747 H         1 UNK         0.0748 
    127 H127       33.7886   29.9452    7.9066 H         1 UNK         0.0771 
    128 H128       34.0761   28.5057    6.9531 H         1 UNK         0.0771 
    129 H129       34.9402   29.9946    6.5785 H         1 UNK         0.0771 
    130 H130       34.6022   28.4048    4.9451 H         1 UNK         0.2980 
    131 H131       33.4371   27.9079    2.3888 H         1 UNK         0.0545 
    132 H132       35.6074   31.2317    1.6855 H         1 UNK         0.3459 
    133 H133       35.1039   30.7890    3.2978 H         1 UNK         0.3459 
    134 H134       35.5253   26.6621    1.9103 H         1 UNK         0.0616 
    135 H135       36.2871   27.3278    3.3309 H         1 UNK         0.0616 
    136 H136       36.2497   24.4321    2.5566 H         1 UNK         0.0634 
    137 H137       35.4849   23.4099    3.7409 H         1 UNK         0.0634 
@<TRIPOS>BOND
     1    1    2 1    
     2    1   72 1    
     3    1   73 1    
     4    1   74 1    
     5    2    3 2    
     6    2    4 am   BACKBONE|DICT|INTERRES
     7    4    5 1    
     8    4   75 1    
     9    5    6 1    
    10    5   35 1    
    11    5   76 1    
    12    6    7 1    
    13    6   77 1    
    14    6   78 1    
    15    7    8 1    
    16    8    9 1    
    17    8   79 1    
    18    8   80 1    
    19    9   10 ar   
    20    9   14 ar   
    21   10   11 ar   
    22   10   81 1    
    23   11   12 ar   
    24   11   71 1    
    25   12   13 ar   
    26   12   82 1    
    27   13   14 ar   
    28   13   15 1    
    29   14   83 1    
    30   15   16 1    
    31   15   84 1    
    32   15   85 1    
    33   16   17 1    
    34   17   18 1    
    35   17   86 1    
    36   17   87 1    
    37   18   19 1    
    38   18   37 1    
    39   18   88 1    
    40   19   20 am   BACKBONE|DICT|INTERRES
    41   19   89 1    
    42   20   21 2    
    43   20   22 1    
    44   22   23 1    
    45   22   24 1    
    46   22   90 1    
    47   23   91 1    
    48   23   92 1    
    49   23   93 1    
    50   24   25 am   BACKBONE|DICT|INTERRES
    51   24   94 1    
    52   25   26 2    
    53   25   27 1    
    54   27   28 1    
    55   27   29 1    
    56   27   95 1    
    57   28   96 1    
    58   28   97 1    
    59   28   98 1    
    60   29   30 am   BACKBONE|DICT|INTERRES
    61   29   99 1    
    62   30   31 2    
    63   30   32 1    
    64   32   33 1    
    65   32   34 1    
    66   32  100 1    
    67   33  101 1    
    68   33  102 1    
    69   33  103 1    
    70   34   35 am   BACKBONE|DICT|INTERRES
    71   34  104 1    
    72   35   36 2    
    73   37   38 2    
    74   37   39 am   BACKBONE|DICT|INTERRES
    75   39   40 1    
    76   39  105 1    
    77   40   41 1    
    78   40   42 1    
    79   40  106 1    
    80   41  107 1    
    81   41  108 1    
    82   41  109 1    
    83   42   43 2    
    84   42   44 am   BACKBONE|DICT|INTERRES
    85   44   45 1    
    86   44  110 1    
    87   45   46 1    
    88   45   47 1    
    89   45  111 1    
    90   46  112 1    
    91   46  113 1    
    92   46  114 1    
    93   47   48 2    
    94   47   49 am   BACKBONE|DICT|INTERRES
    95   49   50 1    
    96   49  115 1    
    97   50   51 1    
    98   50   52 1    
    99   50  116 1    
   100   51  117 1    
   101   51  118 1    
   102   51  119 1    
   103   52   53 2    
   104   52   54 am   BACKBONE|DICT|INTERRES
   105   54   55 1    
   106   54  120 1    
   107   55   56 1    
   108   55   57 1    
   109   55  121 1    
   110   56  122 1    
   111   56  123 1    
   112   56  124 1    
   113   57   58 2    
   114   57   59 am   BACKBONE|DICT|INTERRES
   115   59   60 1    
   116   59  125 1    
   117   60   61 1    
   118   60   62 1    
   119   60  126 1    
   120   61  127 1    
   121   61  128 1    
   122   61  129 1    
   123   62   63 2    
   124   62   64 am   BACKBONE|DICT|INTERRES
   125   64   65 1    
   126   64  130 1    
   127   65   66 1    
   128   65   69 1    
   129   65  131 1    
   130   66   67 am   BACKBONE|DICT|INTERRES
   131   66   68 2    
   132   67  132 1    
   133   67  133 1    
   134   69   70 1    
   135   69  134 1    
   136   69  135 1    
   137   70   71 1    
   138   71  136 1    
   139   71  137 1    
@<TRIPOS>SUBSTRUCTURE
     1 UNK         1 GROUP             0       ****    0 ROOT    
