@<TRIPOS>MOLECULE
3R136
137   139    1
SMALL
USER_CHARGES


@<TRIPOS>ATOM
      1 CA         26.3990   23.2995    2.4791 C.3       0 UNK        -0.1979 
      2 C          27.2435   22.8469    1.2986 C.2       0 UNK         0.4864 
      3 O          27.5169   21.6535    1.1639 O.2       0 UNK        -0.5359 
      4 N          27.6614   23.7774    0.4303 N.am      1 UNK        -0.4318 
      5 CA         28.5626   23.5312   -0.7036 C.3       1 UNK         0.0824 
      6 C6         29.4478   24.7712   -1.0158 C.3       12 UNK        -0.0944 
      7 S7         30.2933   25.5455    0.4130 S.3       12 UNK        -0.2672 
      8 C8         30.9108   24.1524    1.4169 C.3       12 UNK         0.0333 
      9 C9         31.1077   24.5902    2.8585 C.ar      12 UNK        -0.0807 
     10 C10        32.3886   24.7693    3.3846 C.ar      12 UNK        -0.0894 
     11 C11        32.5573   25.2049    4.7020 C.ar      12 UNK        -0.0804 
     12 C12        31.4313   25.4665    5.4907 C.ar      12 UNK        -0.0824 
     13 C13        30.1402   25.2845    4.9805 C.ar      12 UNK        -0.0762 
     14 C14        29.9926   24.8220    3.6679 C.ar      12 UNK        -0.0782 
     15 C15        28.9357   25.5701    5.8816 C.3       12 UNK         0.0230 
     16 S16        27.3818   26.0087    5.0164 S.3       12 UNK        -0.2608 
     17 C17        27.8311   27.5678    4.1819 C.3       12 UNK        -0.0989 
     18 CA         27.6193   27.4839    2.6475 C.3       5 UNK         0.0716 
     19 N          26.2030   27.3665    2.2838 N.am      5 UNK        -0.4135 
     20 C          25.7581   26.8884    1.1156 C.2       4 UNK         0.5031 
     21 O          26.5051   26.3968    0.2633 O.2       4 UNK        -0.5229 
     22 CA         24.2453   27.0096    0.8500 C.3       4 UNK         0.0329 
     23 CB         23.8549   28.4811    0.6267 C.3       4 UNK        -0.2001 
     24 N          23.8416   26.2394   -0.3289 N.am      4 UNK        -0.4303 
     25 C          23.7470   24.9052   -0.3753 C.2       3 UNK         0.5044 
     26 O          23.8526   24.1823    0.6173 O.2       3 UNK        -0.5152 
     27 CA         23.5539   24.2491   -1.7531 C.3       3 UNK         0.0319 
     28 CB         23.6436   25.2379   -2.9410 C.3       3 UNK        -0.2001 
     29 N          24.5845   23.2215   -1.8444 N.am      3 UNK        -0.4354 
     30 C          24.7581   22.2882   -2.7871 C.2       2 UNK         0.4964 
     31 O          23.9962   22.1270   -3.7417 O.2       2 UNK        -0.5047 
     32 CA         25.9901   21.3686   -2.6205 C.3       2 UNK         0.0288 
     33 CB         26.5898   20.9252   -3.9724 C.3       2 UNK        -0.2113 
     34 N          27.0237   21.9336   -1.7361 N.am      2 UNK        -0.4145 
     35 C          27.7472   23.0504   -1.9232 C.2       1 UNK         0.5006 
     36 O          27.7335   23.7130   -2.9622 O.2       1 UNK        -0.5103 
     37 C          28.2484   28.6822    1.9088 C.2       5 UNK         0.5055 
     38 O          28.5019   29.7203    2.5187 O.2       5 UNK        -0.5220 
     39 N          28.4878   28.5234    0.6007 N.am      6 UNK        -0.4450 
     40 CA         29.1180   29.5185   -0.2744 C.3       6 UNK         0.0367 
     41 CB         29.1276   28.9835   -1.7149 C.3       6 UNK        -0.1929 
     42 C          30.5419   29.9122    0.1634 C.2       6 UNK         0.5070 
     43 O          30.9636   31.0431   -0.0774 O.2       6 UNK        -0.5237 
     44 N          31.2422   28.9828    0.8253 N.am      7 UNK        -0.4739 
     45 CA         32.5789   29.1697    1.3867 C.3       7 UNK         0.0276 
     46 CB         33.2459   27.7942    1.5258 C.3       7 UNK        -0.1927 
     47 C          32.6010   29.9182    2.7337 C.2       7 UNK         0.5013 
     48 O          33.6939   30.1248    3.2625 O.2       7 UNK        -0.5193 
     49 N          31.4407   30.3295    3.2767 N.am      8 UNK        -0.4253 
     50 CA         31.3006   31.0186    4.5720 C.3       8 UNK         0.0242 
     51 CB         29.8207   31.3151    4.8572 C.3       8 UNK        -0.2000 
     52 C          32.1396   32.2992    4.7406 C.2       8 UNK         0.4948 
     53 O          32.4652   32.6499    5.8743 O.2       8 UNK        -0.5275 
     54 N          32.5255   32.9421    3.6291 N.am      9 UNK        -0.4246 
     55 CA         33.4893   34.0467    3.5957 C.3       9 UNK         0.0261 
     56 CB         33.5765   34.5969    2.1630 C.3       9 UNK        -0.1959 
     57 C          34.8926   33.6636    4.1123 C.2       9 UNK         0.5033 
     58 O          35.5988   34.5376    4.6178 O.2       9 UNK        -0.5390 
     59 N          35.2635   32.3813    3.9893 N.am      10 UNK        -0.4215 
     60 CA         36.4903   31.8018    4.5346 C.3       10 UNK         0.0240 
     61 CB         37.1860   30.9667    3.4461 C.3       10 UNK        -0.1982 
     62 C          36.1887   30.9336    5.7663 C.2       10 UNK         0.4970 
     63 O          36.9217   31.0201    6.7521 O.2       10 UNK        -0.4916 
     64 N          35.1355   30.1081    5.6885 N.am      11 UNK        -0.4279 
     65 CA         34.7358   29.1583    6.7396 C.3       11 UNK         0.1003 
     66 C          34.1287   29.8038    8.0178 C.2       11 UNK         0.5709 
     67 N          33.6206   31.0290    7.9812 N.am      11 UNK        -0.7358 
     68 O          34.1301   29.1772    9.0748 O.2       11 UNK        -0.4999 
     69 C69        33.8093   28.0442    6.1850 C.3       12 UNK        -0.0954 
     70 S70        34.6362   27.0277    4.9168 S.3       12 UNK        -0.2268 
     71 C71        33.9599   25.3755    5.2687 C.3       12 UNK         0.0203 
     72 H72        25.4200   22.8225    2.4456 H         1 UNK         0.0888 
     73 H73        26.2500   24.3774    2.4854 H         1 UNK         0.0888 
     74 H74        26.8820   23.0213    3.4153 H         1 UNK         0.0888 
     75 H75        27.3374   24.7389    0.5133 H         1 UNK         0.3017 
     76 H76        29.2328   22.7045   -0.4618 H         1 UNK         0.0873 
     77 H77        28.8429   25.5572   -1.4726 H         1 UNK         0.0745 
     78 H78        30.2071   24.5100   -1.7550 H         1 UNK         0.0745 
     79 H79        30.2188   23.3136    1.4183 H         1 UNK         0.0705 
     80 H80        31.8425   23.7848    0.9846 H         1 UNK         0.0705 
     81 H81        33.2563   24.5824    2.7665 H         1 UNK         0.1334 
     82 H82        31.5620   25.8067    6.5089 H         1 UNK         0.1417 
     83 H83        29.0079   24.6538    3.2582 H         1 UNK         0.1562 
     84 H84        29.1757   26.3769    6.5762 H         1 UNK         0.0748 
     85 H85        28.7491   24.6855    6.4917 H         1 UNK         0.0748 
     86 H86        28.8737   27.7993    4.4101 H         1 UNK         0.0940 
     87 H87        27.2435   28.3806    4.6127 H         1 UNK         0.0940 
     88 H88        28.1411   26.5939    2.2935 H         1 UNK         0.0703 
     89 H89        25.5428   27.7625    2.9369 H         1 UNK         0.3081 
     90 H90        23.7102   26.6264    1.7216 H         1 UNK         0.0719 
     91 H91        24.3917   28.9178   -0.2168 H         1 UNK         0.0809 
     92 H92        22.7869   28.5821    0.4318 H         1 UNK         0.0809 
     93 H93        24.0771   29.0903    1.5036 H         1 UNK         0.0809 
     94 H94        23.7914   26.7467   -1.1999 H         1 UNK         0.2990 
     95 H95        22.5752   23.7661   -1.7576 H         1 UNK         0.0690 
     96 H96        23.4811   24.7336   -3.8932 H         1 UNK         0.0788 
     97 H97        24.6198   25.7229   -2.9917 H         1 UNK         0.0788 
     98 H98        22.8809   26.0145   -2.8720 H         1 UNK         0.0788 
     99 H99        25.2295   23.2291   -1.0660 H         1 UNK         0.2993 
    100 H100       25.6224   20.4731   -2.1171 H         1 UNK         0.0949 
    101 H101       25.8614   20.3616   -4.5568 H         1 UNK         0.0767 
    102 H102       26.9000   21.7766   -4.5787 H         1 UNK         0.0767 
    103 H103       27.4566   20.2801   -3.8296 H         1 UNK         0.0767 
    104 H104       27.1103   21.4925   -0.8240 H         1 UNK         0.3013 
    105 H105       28.1875   27.6546    0.1712 H         1 UNK         0.3121 
    106 H106       28.5044   30.4212   -0.2437 H         1 UNK         0.0774 
    107 H107       28.1183   28.7681   -2.0662 H         1 UNK         0.0815 
    108 H108       29.7157   28.0687   -1.8006 H         1 UNK         0.0815 
    109 H109       29.5596   29.7146   -2.3997 H         1 UNK         0.0815 
    110 H110       30.8188   28.0741    0.9590 H         1 UNK         0.2987 
    111 H111       33.1702   29.7624    0.6854 H         1 UNK         0.0949 
    112 H112       32.7211   27.1804    2.2557 H         1 UNK         0.0806 
    113 H113       33.2602   27.2553    0.5785 H         1 UNK         0.0806 
    114 H114       34.2794   27.8877    1.8622 H         1 UNK         0.0806 
    115 H115       30.5769   30.1264    2.7854 H         1 UNK         0.3010 
    116 H116       31.6478   30.3259    5.3390 H         1 UNK         0.0829 
    117 H117       29.2463   30.3949    4.9602 H         1 UNK         0.0813 
    118 H118       29.7008   31.8682    5.7901 H         1 UNK         0.0813 
    119 H119       29.3680   31.9103    4.0633 H         1 UNK         0.0813 
    120 H120       32.2017   32.5899    2.7396 H         1 UNK         0.3038 
    121 H121       33.1078   34.8373    4.2454 H         1 UNK         0.0769 
    122 H122       33.9295   33.8407    1.4605 H         1 UNK         0.0811 
    123 H123       34.2683   35.4389    2.1101 H         1 UNK         0.0811 
    124 H124       32.6074   34.9545    1.8144 H         1 UNK         0.0811 
    125 H125       34.6050   31.7202    3.5838 H         1 UNK         0.3204 
    126 H126       37.1784   32.5911    4.8445 H         1 UNK         0.0748 
    127 H127       37.4550   31.5833    2.5883 H         1 UNK         0.0771 
    128 H128       38.1057   30.5193    3.8254 H         1 UNK         0.0771 
    129 H129       36.5510   30.1550    3.0876 H         1 UNK         0.0771 
    130 H130       34.6011   30.0631    4.8243 H         1 UNK         0.2980 
    131 H131       35.6509   28.6678    7.0779 H         1 UNK         0.0545 
    132 H132       33.2441   31.4217    8.8286 H         1 UNK         0.3459 
    133 H133       33.5384   31.5503    7.1157 H         1 UNK         0.3459 
    134 H134       33.4831   27.3894    6.9947 H         1 UNK         0.0616 
    135 H135       32.9035   28.4659    5.7502 H         1 UNK         0.0616 
    136 H136       33.9697   25.1856    6.3430 H         1 UNK         0.0634 
    137 H137       34.6238   24.6306    4.8275 H         1 UNK         0.0634 
@<TRIPOS>BOND
     1    1    2 1    
     2    1   72 1    
     3    1   73 1    
     4    1   74 1    
     5    2    3 2    
     6    2    4 am   BACKBONE|DICT|INTERRES
     7    4    5 1    
     8    4   75 1    
     9    5    6 1    
    10    5   35 1    
    11    5   76 1    
    12    6    7 1    
    13    6   77 1    
    14    6   78 1    
    15    7    8 1    
    16    8    9 1    
    17    8   79 1    
    18    8   80 1    
    19    9   10 ar   
    20    9   14 ar   
    21   10   11 ar   
    22   10   81 1    
    23   11   12 ar   
    24   11   71 1    
    25   12   13 ar   
    26   12   82 1    
    27   13   14 ar   
    28   13   15 1    
    29   14   83 1    
    30   15   16 1    
    31   15   84 1    
    32   15   85 1    
    33   16   17 1    
    34   17   18 1    
    35   17   86 1    
    36   17   87 1    
    37   18   19 1    
    38   18   37 1    
    39   18   88 1    
    40   19   20 am   BACKBONE|DICT|INTERRES
    41   19   89 1    
    42   20   21 2    
    43   20   22 1    
    44   22   23 1    
    45   22   24 1    
    46   22   90 1    
    47   23   91 1    
    48   23   92 1    
    49   23   93 1    
    50   24   25 am   BACKBONE|DICT|INTERRES
    51   24   94 1    
    52   25   26 2    
    53   25   27 1    
    54   27   28 1    
    55   27   29 1    
    56   27   95 1    
    57   28   96 1    
    58   28   97 1    
    59   28   98 1    
    60   29   30 am   BACKBONE|DICT|INTERRES
    61   29   99 1    
    62   30   31 2    
    63   30   32 1    
    64   32   33 1    
    65   32   34 1    
    66   32  100 1    
    67   33  101 1    
    68   33  102 1    
    69   33  103 1    
    70   34   35 am   BACKBONE|DICT|INTERRES
    71   34  104 1    
    72   35   36 2    
    73   37   38 2    
    74   37   39 am   BACKBONE|DICT|INTERRES
    75   39   40 1    
    76   39  105 1    
    77   40   41 1    
    78   40   42 1    
    79   40  106 1    
    80   41  107 1    
    81   41  108 1    
    82   41  109 1    
    83   42   43 2    
    84   42   44 am   BACKBONE|DICT|INTERRES
    85   44   45 1    
    86   44  110 1    
    87   45   46 1    
    88   45   47 1    
    89   45  111 1    
    90   46  112 1    
    91   46  113 1    
    92   46  114 1    
    93   47   48 2    
    94   47   49 am   BACKBONE|DICT|INTERRES
    95   49   50 1    
    96   49  115 1    
    97   50   51 1    
    98   50   52 1    
    99   50  116 1    
   100   51  117 1    
   101   51  118 1    
   102   51  119 1    
   103   52   53 2    
   104   52   54 am   BACKBONE|DICT|INTERRES
   105   54   55 1    
   106   54  120 1    
   107   55   56 1    
   108   55   57 1    
   109   55  121 1    
   110   56  122 1    
   111   56  123 1    
   112   56  124 1    
   113   57   58 2    
   114   57   59 am   BACKBONE|DICT|INTERRES
   115   59   60 1    
   116   59  125 1    
   117   60   61 1    
   118   60   62 1    
   119   60  126 1    
   120   61  127 1    
   121   61  128 1    
   122   61  129 1    
   123   62   63 2    
   124   62   64 am   BACKBONE|DICT|INTERRES
   125   64   65 1    
   126   64  130 1    
   127   65   66 1    
   128   65   69 1    
   129   65  131 1    
   130   66   67 am   BACKBONE|DICT|INTERRES
   131   66   68 2    
   132   67  132 1    
   133   67  133 1    
   134   69   70 1    
   135   69  134 1    
   136   69  135 1    
   137   70   71 1    
   138   71  136 1    
   139   71  137 1    
@<TRIPOS>SUBSTRUCTURE
     1 UNK         1 GROUP             0       ****    0 ROOT    
