@<TRIPOS>MOLECULE
3R136
137   139    1
SMALL
USER_CHARGES


@<TRIPOS>ATOM
      1 CA         27.7782   22.8097    4.1335 C.3       0 UNK        -0.1979 
      2 C          27.2790   22.5011    2.7303 C.2       0 UNK         0.4864 
      3 O          26.1831   21.9597    2.5783 O.2       0 UNK        -0.5359 
      4 N          28.0791   22.8203    1.7043 N.am      1 UNK        -0.4318 
      5 CA         27.7805   22.5313    0.2932 C.3       1 UNK         0.0824 
      6 C6         29.0567   22.3970   -0.5798 C.3       12 UNK        -0.0944 
      7 S7         30.2894   23.7122   -0.3037 S.3       12 UNK        -0.2672 
      8 C8         31.6792   22.7518    0.3867 C.3       12 UNK         0.0333 
      9 C9         32.6463   23.6465    1.1468 C.ar      12 UNK        -0.0807 
     10 C10        32.8541   23.4616    2.5180 C.ar      12 UNK        -0.0894 
     11 C11        33.7021   24.3149    3.2326 C.ar      12 UNK        -0.0804 
     12 C12        34.3202   25.3761    2.5644 C.ar      12 UNK        -0.0824 
     13 C13        34.0872   25.5954    1.2051 C.ar      12 UNK        -0.0762 
     14 C14        33.2996   24.6909    0.4877 C.ar      12 UNK        -0.0782 
     15 C15        34.6247   26.8492    0.5315 C.3       12 UNK         0.0230 
     16 S16        33.2837   27.8635   -0.1853 S.3       12 UNK        -0.2608 
     17 C17        32.1866   28.2056    1.2438 C.3       12 UNK        -0.0989 
     18 CA         30.9953   27.2177    1.4143 C.3       5 UNK         0.0716 
     19 N          30.4129   27.3373    2.7450 N.am      5 UNK        -0.4135 
     20 C          29.8375   26.3348    3.4213 C.2       4 UNK         0.5031 
     21 O          29.8712   25.1510    3.0853 O.2       4 UNK        -0.5229 
     22 CA         28.9866   26.7554    4.6235 C.3       4 UNK         0.0329 
     23 CB         29.8147   27.5044    5.6768 C.3       4 UNK        -0.2001 
     24 N          27.9112   27.6060    4.1098 N.am      4 UNK        -0.4303 
     25 C          26.6668   27.1618    3.8991 C.2       3 UNK         0.5044 
     26 O          26.2143   26.1295    4.3950 O.2       3 UNK        -0.5152 
     27 CA         25.7957   27.9369    2.9015 C.3       3 UNK         0.0319 
     28 CB         26.1937   29.4092    2.6930 C.3       3 UNK        -0.2001 
     29 N          25.9041   27.2313    1.6282 N.am      3 UNK        -0.4354 
     30 C          25.0038   26.3571    1.1618 C.2       2 UNK         0.4964 
     31 O          23.9107   26.1375    1.6845 O.2       2 UNK        -0.5047 
     32 CA         25.4129   25.5644   -0.0801 C.3       2 UNK         0.0288 
     33 CB         25.7913   26.4784   -1.2599 C.3       2 UNK        -0.2113 
     34 N          26.5052   24.6566    0.2736 N.am      2 UNK        -0.4145 
     35 C          26.7354   23.4834   -0.3309 C.2       1 UNK         0.5006 
     36 O          26.1291   23.1135   -1.3389 O.2       1 UNK        -0.5103 
     37 C          29.8813   27.3875    0.3562 C.2       5 UNK         0.5055 
     38 O          28.7127   27.6135    0.6929 O.2       5 UNK        -0.5220 
     39 N          30.2738   27.2883   -0.9184 N.am      6 UNK        -0.4450 
     40 CA         29.4172   27.4355   -2.0952 C.3       6 UNK         0.0367 
     41 CB         30.2302   27.0830   -3.3506 C.3       6 UNK        -0.1929 
     42 C          28.7869   28.8343   -2.2374 C.2       6 UNK         0.5070 
     43 O          27.7384   28.9552   -2.8711 O.2       6 UNK        -0.5237 
     44 N          29.4258   29.8590   -1.6564 N.am      7 UNK        -0.4739 
     45 CA         28.9659   31.2473   -1.6822 C.3       7 UNK         0.0276 
     46 CB         29.3796   31.9111   -3.0133 C.3       7 UNK        -0.1927 
     47 C          29.4431   32.0360   -0.4492 C.2       7 UNK         0.5013 
     48 O          29.6878   33.2383   -0.5679 O.2       7 UNK        -0.5193 
     49 N          29.5714   31.3770    0.7129 N.am      8 UNK        -0.4253 
     50 CA         29.9445   32.0273    1.9713 C.3       8 UNK         0.0242 
     51 CB         31.4709   32.2124    2.0655 C.3       8 UNK        -0.2000 
     52 C          29.4200   31.2244    3.1636 C.2       8 UNK         0.4948 
     53 O          29.4348   29.9908    3.1311 O.2       8 UNK        -0.5275 
     54 N          29.0050   31.9466    4.2119 N.am      9 UNK        -0.4246 
     55 CA         28.4810   31.4092    5.4732 C.3       9 UNK         0.0261 
     56 CB         27.5590   32.4610    6.1143 C.3       9 UNK        -0.1959 
     57 C          29.5714   30.9500    6.4615 C.2       9 UNK         0.5033 
     58 O          29.2366   30.5245    7.5679 O.2       9 UNK        -0.5390 
     59 N          30.8414   31.0202    6.0519 N.am      10 UNK        -0.4215 
     60 CA         31.9943   30.4452    6.7326 C.3       10 UNK         0.0240 
     61 CB         32.7827   31.5588    7.4419 C.3       10 UNK        -0.1982 
     62 C          32.8531   29.7521    5.6698 C.2       10 UNK         0.4970 
     63 O          32.8337   30.1681    4.5086 O.2       10 UNK        -0.4916 
     64 N          33.5899   28.7174    6.0843 N.am      11 UNK        -0.4279 
     65 CA         34.5008   27.9524    5.2180 C.3       11 UNK         0.1003 
     66 C          35.8131   28.6978    4.8342 C.2       11 UNK         0.5709 
     67 N          36.1614   29.8117    5.4676 N.am      11 UNK        -0.7358 
     68 O          36.5232   28.2569    3.9339 O.2       11 UNK        -0.4999 
     69 C69        34.8047   26.5545    5.8186 C.3       12 UNK        -0.0954 
     70 S70        33.3516   25.4489    5.7713 S.3       12 UNK        -0.2268 
     71 C71        33.9465   24.0797    4.7199 C.3       12 UNK         0.0203 
     72 H72        28.8551   22.9742    4.1520 H         1 UNK         0.0888 
     73 H73        27.2861   23.7001    4.5211 H         1 UNK         0.0888 
     74 H74        27.5573   21.9795    4.8037 H         1 UNK         0.0888 
     75 H75        28.9511   23.3079    1.8792 H         1 UNK         0.3017 
     76 H76        27.3014   21.5497    0.2694 H         1 UNK         0.0873 
     77 H77        29.5194   21.4295   -0.3807 H         1 UNK         0.0745 
     78 H78        28.8083   22.3732   -1.6429 H         1 UNK         0.0745 
     79 H79        31.2907   21.9752    1.0474 H         1 UNK         0.0705 
     80 H80        32.2061   22.2426   -0.4213 H         1 UNK         0.0705 
     81 H81        32.3485   22.6559    3.0321 H         1 UNK         0.1334 
     82 H82        34.9640   26.0518    3.1050 H         1 UNK         0.1417 
     83 H83        33.1201   24.8530   -0.5666 H         1 UNK         0.1562 
     84 H84        35.3179   26.5621   -0.2602 H         1 UNK         0.0748 
     85 H85        35.1921   27.4611    1.2351 H         1 UNK         0.0748 
     86 H86        31.8149   29.2256    1.1506 H         1 UNK         0.0940 
     87 H87        32.8027   28.2024    2.1446 H         1 UNK         0.0940 
     88 H88        31.3649   26.2014    1.3104 H         1 UNK         0.0703 
     89 H89        30.2213   28.2899    3.0434 H         1 UNK         0.3081 
     90 H90        28.5893   25.8526    5.0917 H         1 UNK         0.0719 
     91 H91        30.2779   28.3969    5.2627 H         1 UNK         0.0809 
     92 H92        29.1976   27.8057    6.5232 H         1 UNK         0.0809 
     93 H93        30.6140   26.8722    6.0648 H         1 UNK         0.0809 
     94 H94        28.2049   28.4560    3.6386 H         1 UNK         0.2990 
     95 H95        24.7709   27.9161    3.2784 H         1 UNK         0.0690 
     96 H96        26.2843   29.9382    3.6414 H         1 UNK         0.0788 
     97 H97        25.4353   29.9312    2.1095 H         1 UNK         0.0788 
     98 H98        27.1328   29.5051    2.1503 H         1 UNK         0.0788 
     99 H99        26.7968   27.3254    1.1489 H         1 UNK         0.2993 
    100 H100       24.5466   24.9685   -0.3778 H         1 UNK         0.0949 
    101 H101       26.0925   25.9018   -2.1345 H         1 UNK         0.0767 
    102 H102       24.9438   27.0973   -1.5565 H         1 UNK         0.0767 
    103 H103       26.6060   27.1532   -1.0048 H         1 UNK         0.0767 
    104 H104       27.0250   24.8772    1.1119 H         1 UNK         0.3013 
    105 H105       31.2581   27.1297   -1.0922 H         1 UNK         0.3121 
    106 H106       28.6092   26.7086   -2.0050 H         1 UNK         0.0774 
    107 H107       29.6126   27.1529   -4.2472 H         1 UNK         0.0815 
    108 H108       31.0782   27.7558   -3.4852 H         1 UNK         0.0815 
    109 H109       30.6126   26.0631   -3.3017 H         1 UNK         0.0815 
    110 H110       30.2946   29.6790   -1.1730 H         1 UNK         0.2987 
    111 H111       27.8750   31.2541   -1.6261 H         1 UNK         0.0949 
    112 H112       30.4642   31.9573   -3.1164 H         1 UNK         0.0806 
    113 H113       28.9845   31.3673   -3.8714 H         1 UNK         0.0806 
    114 H114       28.9992   32.9310   -3.0824 H         1 UNK         0.0806 
    115 H115       29.2950   30.4059    0.7864 H         1 UNK         0.3010 
    116 H116       29.4727   33.0124    2.0012 H         1 UNK         0.0829 
    117 H117       31.8581   32.7885    1.2252 H         1 UNK         0.0813 
    118 H118       31.7441   32.7498    2.9744 H         1 UNK         0.0813 
    119 H119       31.9983   31.2600    2.0886 H         1 UNK         0.0813 
    120 H120       29.0542   32.9543    4.1514 H         1 UNK         0.3038 
    121 H121       27.8806   30.5256    5.2510 H         1 UNK         0.0769 
    122 H122       28.1047   33.3666    6.3821 H         1 UNK         0.0811 
    123 H123       27.0979   32.0775    7.0256 H         1 UNK         0.0811 
    124 H124       26.7490   32.7420    5.4409 H         1 UNK         0.0811 
    125 H125       31.0276   31.3070    5.0997 H         1 UNK         0.3204 
    126 H126       31.6706   29.6997    7.4625 H         1 UNK         0.0748 
    127 H127       33.6463   31.1538    7.9707 H         1 UNK         0.0771 
    128 H128       33.1491   32.3063    6.7367 H         1 UNK         0.0771 
    129 H129       32.1635   32.0709    8.1787 H         1 UNK         0.0771 
    130 H130       33.5573   28.4362    7.0531 H         1 UNK         0.2980 
    131 H131       33.9791   27.7972    4.2722 H         1 UNK         0.0545 
    132 H132       35.5870   30.1847    6.2051 H         1 UNK         0.3459 
    133 H133       37.0114   30.2831    5.2014 H         1 UNK         0.3459 
    134 H134       35.6329   26.0718    5.2978 H         1 UNK         0.0616 
    135 H135       35.1324   26.6496    6.8551 H         1 UNK         0.0616 
    136 H136       35.0078   23.8993    4.8945 H         1 UNK         0.0634 
    137 H137       33.4356   23.1715    5.0429 H         1 UNK         0.0634 
@<TRIPOS>BOND
     1    1    2 1    
     2    1   72 1    
     3    1   73 1    
     4    1   74 1    
     5    2    3 2    
     6    2    4 am   BACKBONE|DICT|INTERRES
     7    4    5 1    
     8    4   75 1    
     9    5    6 1    
    10    5   35 1    
    11    5   76 1    
    12    6    7 1    
    13    6   77 1    
    14    6   78 1    
    15    7    8 1    
    16    8    9 1    
    17    8   79 1    
    18    8   80 1    
    19    9   10 ar   
    20    9   14 ar   
    21   10   11 ar   
    22   10   81 1    
    23   11   12 ar   
    24   11   71 1    
    25   12   13 ar   
    26   12   82 1    
    27   13   14 ar   
    28   13   15 1    
    29   14   83 1    
    30   15   16 1    
    31   15   84 1    
    32   15   85 1    
    33   16   17 1    
    34   17   18 1    
    35   17   86 1    
    36   17   87 1    
    37   18   19 1    
    38   18   37 1    
    39   18   88 1    
    40   19   20 am   BACKBONE|DICT|INTERRES
    41   19   89 1    
    42   20   21 2    
    43   20   22 1    
    44   22   23 1    
    45   22   24 1    
    46   22   90 1    
    47   23   91 1    
    48   23   92 1    
    49   23   93 1    
    50   24   25 am   BACKBONE|DICT|INTERRES
    51   24   94 1    
    52   25   26 2    
    53   25   27 1    
    54   27   28 1    
    55   27   29 1    
    56   27   95 1    
    57   28   96 1    
    58   28   97 1    
    59   28   98 1    
    60   29   30 am   BACKBONE|DICT|INTERRES
    61   29   99 1    
    62   30   31 2    
    63   30   32 1    
    64   32   33 1    
    65   32   34 1    
    66   32  100 1    
    67   33  101 1    
    68   33  102 1    
    69   33  103 1    
    70   34   35 am   BACKBONE|DICT|INTERRES
    71   34  104 1    
    72   35   36 2    
    73   37   38 2    
    74   37   39 am   BACKBONE|DICT|INTERRES
    75   39   40 1    
    76   39  105 1    
    77   40   41 1    
    78   40   42 1    
    79   40  106 1    
    80   41  107 1    
    81   41  108 1    
    82   41  109 1    
    83   42   43 2    
    84   42   44 am   BACKBONE|DICT|INTERRES
    85   44   45 1    
    86   44  110 1    
    87   45   46 1    
    88   45   47 1    
    89   45  111 1    
    90   46  112 1    
    91   46  113 1    
    92   46  114 1    
    93   47   48 2    
    94   47   49 am   BACKBONE|DICT|INTERRES
    95   49   50 1    
    96   49  115 1    
    97   50   51 1    
    98   50   52 1    
    99   50  116 1    
   100   51  117 1    
   101   51  118 1    
   102   51  119 1    
   103   52   53 2    
   104   52   54 am   BACKBONE|DICT|INTERRES
   105   54   55 1    
   106   54  120 1    
   107   55   56 1    
   108   55   57 1    
   109   55  121 1    
   110   56  122 1    
   111   56  123 1    
   112   56  124 1    
   113   57   58 2    
   114   57   59 am   BACKBONE|DICT|INTERRES
   115   59   60 1    
   116   59  125 1    
   117   60   61 1    
   118   60   62 1    
   119   60  126 1    
   120   61  127 1    
   121   61  128 1    
   122   61  129 1    
   123   62   63 2    
   124   62   64 am   BACKBONE|DICT|INTERRES
   125   64   65 1    
   126   64  130 1    
   127   65   66 1    
   128   65   69 1    
   129   65  131 1    
   130   66   67 am   BACKBONE|DICT|INTERRES
   131   66   68 2    
   132   67  132 1    
   133   67  133 1    
   134   69   70 1    
   135   69  134 1    
   136   69  135 1    
   137   70   71 1    
   138   71  136 1    
   139   71  137 1    
@<TRIPOS>SUBSTRUCTURE
     1 UNK         1 GROUP             0       ****    0 ROOT    
