@<TRIPOS>MOLECULE
3R136
137   139    1
SMALL
USER_CHARGES


@<TRIPOS>ATOM
      1 CA         32.9568   23.6822   -3.2500 C.3       0 UNK        -0.1979 
      2 C          31.7651   23.0576   -2.5387 C.2       0 UNK         0.4864 
      3 O          30.9212   22.4442   -3.1945 O.2       0 UNK        -0.5359 
      4 N          31.7025   23.2115   -1.2082 N.am      1 UNK        -0.4318 
      5 CA         30.6379   22.7305   -0.3153 C.3       1 UNK         0.0824 
      6 C6         30.5306   21.1736   -0.2601 C.3       12 UNK        -0.0944 
      7 S7         32.0668   20.3839    0.3350 S.3       12 UNK        -0.2672 
      8 C8         31.6846   20.0979    2.0964 C.3       12 UNK         0.0333 
      9 C9         31.4743   21.4126    2.8320 C.ar      12 UNK        -0.0807 
     10 C10        32.5758   22.1705    3.2389 C.ar      12 UNK        -0.0894 
     11 C11        32.3971   23.4189    3.8421 C.ar      12 UNK        -0.0804 
     12 C12        31.0988   23.9086    4.0205 C.ar      12 UNK        -0.0824 
     13 C13        29.9852   23.1550    3.6304 C.ar      12 UNK        -0.0762 
     14 C14        30.1818   21.8957    3.0586 C.ar      12 UNK        -0.0782 
     15 C15        28.5730   23.7199    3.7416 C.3       12 UNK         0.0230 
     16 S16        28.2740   24.6140    5.3010 S.3       12 UNK        -0.2608 
     17 C17        26.9182   25.7380    4.8263 C.3       12 UNK        -0.0989 
     18 CA         27.4594   27.1162    4.3624 C.3       5 UNK         0.0716 
     19 N          28.0635   27.0320    3.0287 N.am      5 UNK        -0.4135 
     20 C          29.1228   27.7475    2.6253 C.2       4 UNK         0.5031 
     21 O          29.7527   28.5039    3.3619 O.2       4 UNK        -0.5229 
     22 CA         29.5559   27.6149    1.1491 C.3       4 UNK         0.0329 
     23 CB         30.7730   26.6828    1.0357 C.3       4 UNK        -0.2001 
     24 N          28.5021   27.1477    0.2395 N.am      4 UNK        -0.4303 
     25 C          27.3216   27.7586    0.0532 C.2       3 UNK         0.5044 
     26 O          27.0201   28.8206    0.5941 O.2       3 UNK        -0.5152 
     27 CA         26.2627   27.0545   -0.8127 C.3       3 UNK         0.0319 
     28 CB         26.2084   27.6917   -2.2096 C.3       3 UNK        -0.2001 
     29 N          26.4428   25.6073   -0.9481 N.am      3 UNK        -0.4354 
     30 C          26.5209   24.7151    0.0503 C.2       2 UNK         0.4964 
     31 O          26.4443   25.0094    1.2451 O.2       2 UNK        -0.5047 
     32 CA         26.7779   23.2511   -0.3557 C.3       2 UNK         0.0288 
     33 CB         26.3383   22.9246   -1.8012 C.3       2 UNK        -0.2113 
     34 N          28.1733   22.8342   -0.1572 N.am      2 UNK        -0.4145 
     35 C          29.2908   23.4483   -0.5848 C.2       1 UNK         0.5006 
     36 O          29.2923   24.5543   -1.1344 O.2       1 UNK        -0.5103 
     37 C          26.3654   28.2064    4.4394 C.2       5 UNK         0.5055 
     38 O          25.9203   28.5105    5.5477 O.2       5 UNK        -0.5220 
     39 N          25.9387   28.7706    3.2994 N.am      6 UNK        -0.4450 
     40 CA         24.9231   29.8237    3.2180 C.3       6 UNK         0.0367 
     41 CB         23.8889   29.4525    2.1410 C.3       6 UNK        -0.1929 
     42 C          25.5623   31.1853    2.9077 C.2       6 UNK         0.5070 
     43 O          25.2192   32.1782    3.5504 O.2       6 UNK        -0.5237 
     44 N          26.4730   31.2109    1.9273 N.am      7 UNK        -0.4739 
     45 CA         27.2414   32.3846    1.5151 C.3       7 UNK         0.0276 
     46 CB         27.8076   32.1196    0.1090 C.3       7 UNK        -0.1927 
     47 C          28.3832   32.6936    2.4968 C.2       7 UNK         0.5013 
     48 O          28.7994   31.8219    3.2637 O.2       7 UNK        -0.5193 
     49 N          28.9252   33.9152    2.4091 N.am      8 UNK        -0.4253 
     50 CA         30.0972   34.3770    3.1623 C.3       8 UNK         0.0242 
     51 CB         30.0664   35.9155    3.2394 C.3       8 UNK        -0.2000 
     52 C          31.4161   33.8364    2.5673 C.2       8 UNK         0.4948 
     53 O          32.3049   34.6154    2.2155 O.2       8 UNK        -0.5275 
     54 N          31.5044   32.5084    2.4396 N.am      9 UNK        -0.4246 
     55 CA         32.6731   31.7726    1.9607 C.3       9 UNK         0.0261 
     56 CB         32.1920   30.4335    1.3739 C.3       9 UNK        -0.1959 
     57 C          33.6840   31.5366    3.0952 C.2       9 UNK         0.5033 
     58 O          33.3766   31.7766    4.2665 O.2       9 UNK        -0.5390 
     59 N          34.8606   31.0052    2.7320 N.am      10 UNK        -0.4215 
     60 CA         35.9471   30.6279    3.6486 C.3       10 UNK         0.0240 
     61 CB         37.1491   30.1316    2.8282 C.3       10 UNK        -0.1982 
     62 C          35.5572   29.5835    4.7154 C.2       10 UNK         0.4970 
     63 O          36.2078   29.5217    5.7594 O.2       10 UNK        -0.4916 
     64 N          34.4995   28.8068    4.4481 N.am      11 UNK        -0.4279 
     65 CA         33.8421   27.9087    5.4076 C.3       11 UNK         0.1003 
     66 C          33.1088   28.6365    6.5749 C.2       11 UNK         0.5709 
     67 N          32.8497   29.9379    6.5055 N.am      11 UNK        -0.7358 
     68 O          32.7774   28.0025    7.5739 O.2       11 UNK        -0.4999 
     69 C69        32.8805   26.9257    4.6914 C.3       12 UNK        -0.0954 
     70 S70        33.7366   25.8470    3.4920 S.3       12 UNK        -0.2268 
     71 C71        33.6109   24.2200    4.3036 C.3       12 UNK         0.0203 
     72 H72        33.6299   24.1849   -2.5557 H         1 UNK         0.0888 
     73 H73        33.5242   22.9147   -3.7757 H         1 UNK         0.0888 
     74 H74        32.6149   24.4148   -3.9807 H         1 UNK         0.0888 
     75 H75        32.4280   23.7430   -0.7490 H         1 UNK         0.3017 
     76 H76        30.9331   23.0808    0.6730 H         1 UNK         0.0873 
     77 H77        29.7211   20.8390    0.3877 H         1 UNK         0.0745 
     78 H78        30.2991   20.7691   -1.2464 H         1 UNK         0.0745 
     79 H79        30.8052   19.4576    2.1823 H         1 UNK         0.0705 
     80 H80        32.5086   19.5483    2.5540 H         1 UNK         0.0705 
     81 H81        33.5742   21.7910    3.0679 H         1 UNK         0.1334 
     82 H82        30.9500   24.8859    4.4539 H         1 UNK         0.1417 
     83 H83        29.3286   21.3101    2.7452 H         1 UNK         0.1562 
     84 H84        27.8260   22.9301    3.6481 H         1 UNK         0.0748 
     85 H85        28.4238   24.3863    2.8943 H         1 UNK         0.0748 
     86 H86        26.2902   25.2771    4.0613 H         1 UNK         0.0940 
     87 H87        26.2841   25.8451    5.7089 H         1 UNK         0.0940 
     88 H88        28.2252   27.4264    5.0772 H         1 UNK         0.0703 
     89 H89        27.6016   26.4201    2.3648 H         1 UNK         0.3081 
     90 H90        29.8507   28.6095    0.8103 H         1 UNK         0.0719 
     91 H91        30.5463   25.6775    1.3928 H         1 UNK         0.0809 
     92 H92        31.1218   26.6040    0.0058 H         1 UNK         0.0809 
     93 H93        31.6062   27.0586    1.6303 H         1 UNK         0.0809 
     94 H94        28.6779   26.2781   -0.2558 H         1 UNK         0.2990 
     95 H95        25.2981   27.2137   -0.3265 H         1 UNK         0.0690 
     96 H96        25.3905   27.2817   -2.8025 H         1 UNK         0.0788 
     97 H97        27.1367   27.5342   -2.7604 H         1 UNK         0.0788 
     98 H98        26.0479   28.7689   -2.1419 H         1 UNK         0.0788 
     99 H99        26.5677   25.2599   -1.8880 H         1 UNK         0.2993 
    100 H100       26.1697   22.6450    0.3179 H         1 UNK         0.0949 
    101 H101       26.3861   21.8515   -1.9873 H         1 UNK         0.0767 
    102 H102       25.3070   23.2318   -1.9820 H         1 UNK         0.0767 
    103 H103       26.9693   23.4104   -2.5468 H         1 UNK         0.0767 
    104 H104       28.2823   21.9526    0.3217 H         1 UNK         0.3013 
    105 H105       26.4009   28.5327    2.4285 H         1 UNK         0.3121 
    106 H106       24.3923   29.9171    4.1679 H         1 UNK         0.0774 
    107 H107       24.3434   29.3505    1.1549 H         1 UNK         0.0815 
    108 H108       23.1149   30.2174    2.0653 H         1 UNK         0.0815 
    109 H109       23.3923   28.5117    2.3786 H         1 UNK         0.0815 
    110 H110       26.7025   30.3406    1.4507 H         1 UNK         0.2987 
    111 H111       26.5714   33.2465    1.4757 H         1 UNK         0.0949 
    112 H112       28.4986   31.2749    0.1074 H         1 UNK         0.0806 
    113 H113       27.0123   31.8989   -0.6032 H         1 UNK         0.0806 
    114 H114       28.3501   32.9857   -0.2717 H         1 UNK         0.0806 
    115 H115       28.5550   34.5596    1.7248 H         1 UNK         0.3010 
    116 H116       30.0302   33.9946    4.1835 H         1 UNK         0.0829 
    117 H117       29.1504   36.2712    3.7114 H         1 UNK         0.0813 
    118 H118       30.9006   36.2937    3.8321 H         1 UNK         0.0813 
    119 H119       30.1350   36.3718    2.2511 H         1 UNK         0.0813 
    120 H120       30.7279   31.9561    2.7923 H         1 UNK         0.3038 
    121 H121       33.1629   32.3501    1.1737 H         1 UNK         0.0769 
    122 H122       31.7523   29.7963    2.1418 H         1 UNK         0.0811 
    123 H123       33.0105   29.8767    0.9167 H         1 UNK         0.0811 
    124 H124       31.4409   30.5892    0.5991 H         1 UNK         0.0811 
    125 H125       35.0291   30.8386    1.7499 H         1 UNK         0.3204 
    126 H126       36.2473   31.5313    4.1835 H         1 UNK         0.0748 
    127 H127       37.9862   29.8726    3.4784 H         1 UNK         0.0771 
    128 H128       36.9016   29.2423    2.2468 H         1 UNK         0.0771 
    129 H129       37.5044   30.8977    2.1386 H         1 UNK         0.0771 
    130 H130       34.0372   28.9136    3.5593 H         1 UNK         0.2980 
    131 H131       34.6279   27.3146    5.8782 H         1 UNK         0.0545 
    132 H132       33.1040   30.4870    5.6896 H         1 UNK         0.3459 
    133 H133       32.3789   30.3831    7.2763 H         1 UNK         0.3459 
    134 H134       32.3627   26.3079    5.4260 H         1 UNK         0.0616 
    135 H135       32.1027   27.4757    4.1603 H         1 UNK         0.0616 
    136 H136       34.5286   23.6717    4.0857 H         1 UNK         0.0634 
    137 H137       33.5843   24.3358    5.3877 H         1 UNK         0.0634 
@<TRIPOS>BOND
     1    1    2 1    
     2    1   72 1    
     3    1   73 1    
     4    1   74 1    
     5    2    3 2    
     6    2    4 am   BACKBONE|DICT|INTERRES
     7    4    5 1    
     8    4   75 1    
     9    5    6 1    
    10    5   35 1    
    11    5   76 1    
    12    6    7 1    
    13    6   77 1    
    14    6   78 1    
    15    7    8 1    
    16    8    9 1    
    17    8   79 1    
    18    8   80 1    
    19    9   10 ar   
    20    9   14 ar   
    21   10   11 ar   
    22   10   81 1    
    23   11   12 ar   
    24   11   71 1    
    25   12   13 ar   
    26   12   82 1    
    27   13   14 ar   
    28   13   15 1    
    29   14   83 1    
    30   15   16 1    
    31   15   84 1    
    32   15   85 1    
    33   16   17 1    
    34   17   18 1    
    35   17   86 1    
    36   17   87 1    
    37   18   19 1    
    38   18   37 1    
    39   18   88 1    
    40   19   20 am   BACKBONE|DICT|INTERRES
    41   19   89 1    
    42   20   21 2    
    43   20   22 1    
    44   22   23 1    
    45   22   24 1    
    46   22   90 1    
    47   23   91 1    
    48   23   92 1    
    49   23   93 1    
    50   24   25 am   BACKBONE|DICT|INTERRES
    51   24   94 1    
    52   25   26 2    
    53   25   27 1    
    54   27   28 1    
    55   27   29 1    
    56   27   95 1    
    57   28   96 1    
    58   28   97 1    
    59   28   98 1    
    60   29   30 am   BACKBONE|DICT|INTERRES
    61   29   99 1    
    62   30   31 2    
    63   30   32 1    
    64   32   33 1    
    65   32   34 1    
    66   32  100 1    
    67   33  101 1    
    68   33  102 1    
    69   33  103 1    
    70   34   35 am   BACKBONE|DICT|INTERRES
    71   34  104 1    
    72   35   36 2    
    73   37   38 2    
    74   37   39 am   BACKBONE|DICT|INTERRES
    75   39   40 1    
    76   39  105 1    
    77   40   41 1    
    78   40   42 1    
    79   40  106 1    
    80   41  107 1    
    81   41  108 1    
    82   41  109 1    
    83   42   43 2    
    84   42   44 am   BACKBONE|DICT|INTERRES
    85   44   45 1    
    86   44  110 1    
    87   45   46 1    
    88   45   47 1    
    89   45  111 1    
    90   46  112 1    
    91   46  113 1    
    92   46  114 1    
    93   47   48 2    
    94   47   49 am   BACKBONE|DICT|INTERRES
    95   49   50 1    
    96   49  115 1    
    97   50   51 1    
    98   50   52 1    
    99   50  116 1    
   100   51  117 1    
   101   51  118 1    
   102   51  119 1    
   103   52   53 2    
   104   52   54 am   BACKBONE|DICT|INTERRES
   105   54   55 1    
   106   54  120 1    
   107   55   56 1    
   108   55   57 1    
   109   55  121 1    
   110   56  122 1    
   111   56  123 1    
   112   56  124 1    
   113   57   58 2    
   114   57   59 am   BACKBONE|DICT|INTERRES
   115   59   60 1    
   116   59  125 1    
   117   60   61 1    
   118   60   62 1    
   119   60  126 1    
   120   61  127 1    
   121   61  128 1    
   122   61  129 1    
   123   62   63 2    
   124   62   64 am   BACKBONE|DICT|INTERRES
   125   64   65 1    
   126   64  130 1    
   127   65   66 1    
   128   65   69 1    
   129   65  131 1    
   130   66   67 am   BACKBONE|DICT|INTERRES
   131   66   68 2    
   132   67  132 1    
   133   67  133 1    
   134   69   70 1    
   135   69  134 1    
   136   69  135 1    
   137   70   71 1    
   138   71  136 1    
   139   71  137 1    
@<TRIPOS>SUBSTRUCTURE
     1 UNK         1 GROUP             0       ****    0 ROOT    
