@<TRIPOS>MOLECULE
3R136
137   139    1
SMALL
USER_CHARGES


@<TRIPOS>ATOM
      1 CA         29.0523   23.9969   -3.1275 C.3       0 UNK        -0.1979 
      2 C          28.8230   23.7070   -1.6522 C.2       0 UNK         0.4864 
      3 O          28.0221   24.3856   -1.0049 O.2       0 UNK        -0.5359 
      4 N          29.5223   22.6946   -1.1226 N.am      1 UNK        -0.4318 
      5 CA         29.5138   22.2842    0.2878 C.3       1 UNK         0.0824 
      6 C6         30.5656   21.1730    0.5341 C.3       12 UNK        -0.0944 
      7 S7         31.1815   21.1282    2.2493 S.3       12 UNK        -0.2672 
      8 C8         32.7153   22.1024    2.1218 C.3       12 UNK         0.0333 
      9 C9         32.4408   23.6000    2.1243 C.ar      12 UNK        -0.0807 
     10 C10        32.1619   24.2491    3.3303 C.ar      12 UNK        -0.0894 
     11 C11        31.9428   25.6291    3.3733 C.ar      12 UNK        -0.0804 
     12 C12        32.0071   26.3581    2.1784 C.ar      12 UNK        -0.0824 
     13 C13        32.2753   25.7233    0.9614 C.ar      12 UNK        -0.0762 
     14 C14        32.4909   24.3416    0.9394 C.ar      12 UNK        -0.0782 
     15 C15        32.3605   26.5419   -0.3218 C.3       12 UNK         0.0230 
     16 S16        30.7625   26.6463   -1.1913 S.3       12 UNK        -0.2608 
     17 C17        29.7477   27.5354    0.0308 C.3       12 UNK        -0.0989 
     18 CA         28.4920   28.2072   -0.5766 C.3       5 UNK         0.0716 
     19 N          27.5111   27.2289   -1.0574 N.am      5 UNK        -0.4135 
     20 C          26.3932   27.5346   -1.7340 C.2       4 UNK         0.5031 
     21 O          26.1450   28.6599   -2.1704 O.2       4 UNK        -0.5229 
     22 CA         25.3578   26.4152   -1.9339 C.3       4 UNK         0.0329 
     23 CB         25.6027   25.6506   -3.2427 C.3       4 UNK        -0.2001 
     24 N          25.3539   25.4847   -0.8013 N.am      4 UNK        -0.4303 
     25 C          24.5613   25.6184    0.2716 C.2       3 UNK         0.5044 
     26 O          23.6920   26.4880    0.3629 O.2       3 UNK        -0.5152 
     27 CA         24.7762   24.6482    1.4540 C.3       3 UNK         0.0319 
     28 CB         23.4824   24.4082    2.2619 C.3       3 UNK        -0.2001 
     29 N          25.4048   23.3673    1.1083 N.am      3 UNK        -0.4354 
     30 C          24.9549   22.4152    0.2783 C.2       2 UNK         0.4964 
     31 O          23.9204   22.5174   -0.3831 O.2       2 UNK        -0.5047 
     32 CA         25.8148   21.1334    0.1751 C.3       2 UNK         0.0288 
     33 CB         25.3053   20.1627   -0.9076 C.3       2 UNK        -0.2113 
     34 N          27.2300   21.4203   -0.0815 N.am      2 UNK        -0.4145 
     35 C          28.1143   21.8874    0.8134 C.2       1 UNK         0.5006 
     36 O          27.8348   22.0681    2.0001 O.2       1 UNK        -0.5103 
     37 C          27.8627   29.1298    0.4866 C.2       5 UNK         0.5055 
     38 O          27.0942   28.6605    1.3311 O.2       5 UNK        -0.5220 
     39 N          28.2531   30.4092    0.4621 N.am      6 UNK        -0.4450 
     40 CA         27.9834   31.3641    1.5358 C.3       6 UNK         0.0367 
     41 CB         28.1172   32.7931    0.9842 C.3       6 UNK        -0.1929 
     42 C          28.9749   31.1462    2.6882 C.2       6 UNK         0.5070 
     43 O          30.1192   30.7582    2.4409 O.2       6 UNK        -0.5237 
     44 N          28.5484   31.4666    3.9179 N.am      7 UNK        -0.4739 
     45 CA         29.3538   31.3423    5.1428 C.3       7 UNK         0.0276 
     46 CB         28.4814   31.6692    6.3647 C.3       7 UNK        -0.1927 
     47 C          30.6373   32.1962    5.1514 C.2       7 UNK         0.5013 
     48 O          31.5847   31.8687    5.8680 O.2       7 UNK        -0.5193 
     49 N          30.6542   33.2484    4.3203 N.am      8 UNK        -0.4253 
     50 CA         31.7997   34.1137    4.0388 C.3       8 UNK         0.0242 
     51 CB         31.3499   35.2503    3.1068 C.3       8 UNK        -0.2000 
     52 C          33.0159   33.3812    3.4409 C.2       8 UNK         0.4948 
     53 O          34.1288   33.8940    3.5616 O.2       8 UNK        -0.5275 
     54 N          32.8218   32.1872    2.8574 N.am      9 UNK        -0.4246 
     55 CA         33.8762   31.3094    2.3320 C.3       9 UNK         0.0261 
     56 CB         33.2434   30.3210    1.3343 C.3       9 UNK        -0.1959 
     57 C          34.6895   30.5911    3.4364 C.2       9 UNK         0.5033 
     58 O          35.0160   29.4127    3.2863 O.2       9 UNK        -0.5390 
     59 N          35.0064   31.3168    4.5190 N.am      10 UNK        -0.4215 
     60 CA         35.7552   30.9033    5.7119 C.3       10 UNK         0.0240 
     61 CB         37.2422   30.6822    5.3608 C.3       10 UNK        -0.1982 
     62 C          35.1330   29.7066    6.4618 C.2       10 UNK         0.4970 
     63 O          35.8692   28.8847    7.0125 O.2       10 UNK        -0.4916 
     64 N          33.7968   29.6219    6.4737 N.am      11 UNK        -0.4279 
     65 CA         33.0484   28.5489    7.1439 C.3       11 UNK         0.1003 
     66 C          33.0172   28.7210    8.6869 C.2       11 UNK         0.5709 
     67 N          32.8620   27.6309    9.4270 N.am      11 UNK        -0.7358 
     68 O          33.0989   29.8272    9.2193 O.2       11 UNK        -0.4999 
     69 C69        31.6177   28.3964    6.5686 C.3       12 UNK        -0.0954 
     70 S70        31.6232   28.0946    4.7691 S.3       12 UNK        -0.2268 
     71 C71        31.6473   26.2692    4.7325 C.3       12 UNK         0.0203 
     72 H72        29.0420   25.0718   -3.3067 H         1 UNK         0.0888 
     73 H73        30.0145   23.6138   -3.4665 H         1 UNK         0.0888 
     74 H74        28.2695   23.5376   -3.7299 H         1 UNK         0.0888 
     75 H75        30.1482   22.1750   -1.7214 H         1 UNK         0.3017 
     76 H76        29.8094   23.1717    0.8516 H         1 UNK         0.0873 
     77 H77        30.1655   20.1898    0.2784 H         1 UNK         0.0745 
     78 H78        31.4258   21.3114   -0.1226 H         1 UNK         0.0745 
     79 H79        33.3527   21.8559    2.9723 H         1 UNK         0.0705 
     80 H80        33.2768   21.8078    1.2340 H         1 UNK         0.0705 
     81 H81        32.1202   23.6725    4.2447 H         1 UNK         0.1334 
     82 H82        31.8479   27.4254    2.1820 H         1 UNK         0.1417 
     83 H83        32.7052   23.8473    0.0017 H         1 UNK         0.1562 
     84 H84        33.0958   26.0977   -0.9943 H         1 UNK         0.0748 
     85 H85        32.7214   27.5487   -0.1060 H         1 UNK         0.0748 
     86 H86        30.3851   28.2883    0.5002 H         1 UNK         0.0940 
     87 H87        29.4639   26.8373    0.8215 H         1 UNK         0.0940 
     88 H88        28.7970   28.8174   -1.4296 H         1 UNK         0.0703 
     89 H89        27.6735   26.2608   -0.7963 H         1 UNK         0.3081 
     90 H90        24.3783   26.8906   -2.0198 H         1 UNK         0.0719 
     91 H91        26.5712   25.1581   -3.2476 H         1 UNK         0.0809 
     92 H92        24.8390   24.8897   -3.4045 H         1 UNK         0.0809 
     93 H93        25.5761   26.3261   -4.0988 H         1 UNK         0.0809 
     94 H94        26.0909   24.7860   -0.7852 H         1 UNK         0.2990 
     95 H95        25.4833   25.1516    2.1149 H         1 UNK         0.0690 
     96 H96        23.6610   23.7481    3.1107 H         1 UNK         0.0788 
     97 H97        22.7007   23.9609    1.6471 H         1 UNK         0.0788 
     98 H98        23.0871   25.3431    2.6612 H         1 UNK         0.0788 
     99 H99        26.2784   23.1659    1.5872 H         1 UNK         0.2993 
    100 H100       25.7359   20.6252    1.1387 H         1 UNK         0.0949 
    101 H101       24.2707   19.8724   -0.7187 H         1 UNK         0.0767 
    102 H102       25.3430   20.6111   -1.9013 H         1 UNK         0.0767 
    103 H103       25.8959   19.2466   -0.9292 H         1 UNK         0.0767 
    104 H104       27.5341   21.3439   -1.0410 H         1 UNK         0.3013 
    105 H105       28.9268   30.6990   -0.2320 H         1 UNK         0.3121 
    106 H106       26.9647   31.2191    1.9025 H         1 UNK         0.0774 
    107 H107       27.8840   33.5330    1.7509 H         1 UNK         0.0815 
    108 H108       29.1285   32.9984    0.6301 H         1 UNK         0.0815 
    109 H109       27.4307   32.9632    0.1546 H         1 UNK         0.0815 
    110 H110       27.5995   31.7943    4.0337 H         1 UNK         0.2987 
    111 H111       29.6628   30.2990    5.2118 H         1 UNK         0.0949 
    112 H112       29.0480   31.5530    7.2900 H         1 UNK         0.0806 
    113 H113       28.1124   32.6951    6.3353 H         1 UNK         0.0806 
    114 H114       27.6214   31.0023    6.4295 H         1 UNK         0.0806 
    115 H115       29.8178   33.4219    3.7834 H         1 UNK         0.3010 
    116 H116       32.1206   34.5497    4.9869 H         1 UNK         0.0829 
    117 H117       30.5505   35.8403    3.5554 H         1 UNK         0.0813 
    118 H118       32.1745   35.9335    2.8978 H         1 UNK         0.0813 
    119 H119       30.9921   34.8697    2.1493 H         1 UNK         0.0813 
    120 H120       31.8792   31.8103    2.8234 H         1 UNK         0.3038 
    121 H121       34.5851   31.9274    1.7772 H         1 UNK         0.0769 
    122 H122       34.0033   29.7057    0.8511 H         1 UNK         0.0811 
    123 H123       32.6999   30.8419    0.5462 H         1 UNK         0.0811 
    124 H124       32.5453   29.6487    1.8331 H         1 UNK         0.0811 
    125 H125       34.7152   32.2902    4.4975 H         1 UNK         0.3204 
    126 H126       35.7037   31.7445    6.4044 H         1 UNK         0.0748 
    127 H127       37.8370   30.5074    6.2581 H         1 UNK         0.0771 
    128 H128       37.3775   29.8202    4.7068 H         1 UNK         0.0771 
    129 H129       37.6651   31.5529    4.8597 H         1 UNK         0.0771 
    130 H130       33.2411   30.3519    6.0460 H         1 UNK         0.2980 
    131 H131       33.5774   27.6153    6.9419 H         1 UNK         0.0545 
    132 H132       32.7862   26.7182    9.0053 H         1 UNK         0.3459 
    133 H133       32.8270   27.7222   10.4303 H         1 UNK         0.3459 
    134 H134       31.0860   27.5790    7.0591 H         1 UNK         0.0616 
    135 H135       31.0358   29.2960    6.7697 H         1 UNK         0.0616 
    136 H136       32.3970   25.9246    5.4453 H         1 UNK         0.0634 
    137 H137       30.6841   25.9043    5.0896 H         1 UNK         0.0634 
@<TRIPOS>BOND
     1    1    2 1    
     2    1   72 1    
     3    1   73 1    
     4    1   74 1    
     5    2    3 2    
     6    2    4 am   BACKBONE|DICT|INTERRES
     7    4    5 1    
     8    4   75 1    
     9    5    6 1    
    10    5   35 1    
    11    5   76 1    
    12    6    7 1    
    13    6   77 1    
    14    6   78 1    
    15    7    8 1    
    16    8    9 1    
    17    8   79 1    
    18    8   80 1    
    19    9   10 ar   
    20    9   14 ar   
    21   10   11 ar   
    22   10   81 1    
    23   11   12 ar   
    24   11   71 1    
    25   12   13 ar   
    26   12   82 1    
    27   13   14 ar   
    28   13   15 1    
    29   14   83 1    
    30   15   16 1    
    31   15   84 1    
    32   15   85 1    
    33   16   17 1    
    34   17   18 1    
    35   17   86 1    
    36   17   87 1    
    37   18   19 1    
    38   18   37 1    
    39   18   88 1    
    40   19   20 am   BACKBONE|DICT|INTERRES
    41   19   89 1    
    42   20   21 2    
    43   20   22 1    
    44   22   23 1    
    45   22   24 1    
    46   22   90 1    
    47   23   91 1    
    48   23   92 1    
    49   23   93 1    
    50   24   25 am   BACKBONE|DICT|INTERRES
    51   24   94 1    
    52   25   26 2    
    53   25   27 1    
    54   27   28 1    
    55   27   29 1    
    56   27   95 1    
    57   28   96 1    
    58   28   97 1    
    59   28   98 1    
    60   29   30 am   BACKBONE|DICT|INTERRES
    61   29   99 1    
    62   30   31 2    
    63   30   32 1    
    64   32   33 1    
    65   32   34 1    
    66   32  100 1    
    67   33  101 1    
    68   33  102 1    
    69   33  103 1    
    70   34   35 am   BACKBONE|DICT|INTERRES
    71   34  104 1    
    72   35   36 2    
    73   37   38 2    
    74   37   39 am   BACKBONE|DICT|INTERRES
    75   39   40 1    
    76   39  105 1    
    77   40   41 1    
    78   40   42 1    
    79   40  106 1    
    80   41  107 1    
    81   41  108 1    
    82   41  109 1    
    83   42   43 2    
    84   42   44 am   BACKBONE|DICT|INTERRES
    85   44   45 1    
    86   44  110 1    
    87   45   46 1    
    88   45   47 1    
    89   45  111 1    
    90   46  112 1    
    91   46  113 1    
    92   46  114 1    
    93   47   48 2    
    94   47   49 am   BACKBONE|DICT|INTERRES
    95   49   50 1    
    96   49  115 1    
    97   50   51 1    
    98   50   52 1    
    99   50  116 1    
   100   51  117 1    
   101   51  118 1    
   102   51  119 1    
   103   52   53 2    
   104   52   54 am   BACKBONE|DICT|INTERRES
   105   54   55 1    
   106   54  120 1    
   107   55   56 1    
   108   55   57 1    
   109   55  121 1    
   110   56  122 1    
   111   56  123 1    
   112   56  124 1    
   113   57   58 2    
   114   57   59 am   BACKBONE|DICT|INTERRES
   115   59   60 1    
   116   59  125 1    
   117   60   61 1    
   118   60   62 1    
   119   60  126 1    
   120   61  127 1    
   121   61  128 1    
   122   61  129 1    
   123   62   63 2    
   124   62   64 am   BACKBONE|DICT|INTERRES
   125   64   65 1    
   126   64  130 1    
   127   65   66 1    
   128   65   69 1    
   129   65  131 1    
   130   66   67 am   BACKBONE|DICT|INTERRES
   131   66   68 2    
   132   67  132 1    
   133   67  133 1    
   134   69   70 1    
   135   69  134 1    
   136   69  135 1    
   137   70   71 1    
   138   71  136 1    
   139   71  137 1    
@<TRIPOS>SUBSTRUCTURE
     1 UNK         1 GROUP             0       ****    0 ROOT    
