@<TRIPOS>MOLECULE
3R136
137   139    1
SMALL
USER_CHARGES


@<TRIPOS>ATOM
      1 CA         32.0484   28.3315    0.6850 C.3       0 UNK        -0.1979 
      2 C          31.0963   27.1750    0.4337 C.2       0 UNK         0.4864 
      3 O          29.9280   27.2416    0.8166 O.2       0 UNK        -0.5359 
      4 N          31.5852   26.1045   -0.2030 N.am      1 UNK        -0.4318 
      5 CA         30.8562   24.8555   -0.4552 C.3       1 UNK         0.0824 
      6 C6         31.8165   23.6460   -0.6023 C.3       12 UNK        -0.0944 
      7 S7         32.9240   23.4425    0.8378 S.3       12 UNK        -0.2672 
      8 C8         31.8301   22.6021    2.0279 C.3       12 UNK         0.0333 
      9 C9         31.7435   23.3684    3.3406 C.ar      12 UNK        -0.0807 
     10 C10        32.3987   22.8974    4.4827 C.ar      12 UNK        -0.0894 
     11 C11        32.2942   23.5844    5.6973 C.ar      12 UNK        -0.0804 
     12 C12        31.5416   24.7617    5.7612 C.ar      12 UNK        -0.0824 
     13 C13        30.8930   25.2474    4.6226 C.ar      12 UNK        -0.0762 
     14 C14        30.9892   24.5420    3.4217 C.ar      12 UNK        -0.0782 
     15 C15        30.0904   26.5359    4.6729 C.3       12 UNK         0.0230 
     16 S16        28.3271   26.1879    4.9442 S.3       12 UNK        -0.2608 
     17 C17        27.5869   27.7734    4.4305 C.3       12 UNK        -0.0989 
     18 CA         27.0301   27.7165    2.9801 C.3       5 UNK         0.0716 
     19 N          26.0050   26.6818    2.7850 N.am      5 UNK        -0.4135 
     20 C          24.7808   26.6432    3.3302 C.2       4 UNK         0.5031 
     21 O          24.3438   27.4968    4.1046 O.2       4 UNK        -0.5229 
     22 CA         23.8861   25.4575    2.9134 C.3       4 UNK         0.0329 
     23 CB         22.4864   25.5114    3.5551 C.3       4 UNK        -0.2001 
     24 N          23.7362   25.3979    1.4574 N.am      4 UNK        -0.4303 
     25 C          24.6123   24.8362    0.6154 C.2       3 UNK         0.5044 
     26 O          25.6165   24.2301    0.9970 O.2       3 UNK        -0.5152 
     27 CA         24.3510   24.9996   -0.8988 C.3       3 UNK         0.0319 
     28 CB         23.3348   26.1123   -1.2428 C.3       3 UNK        -0.2001 
     29 N          25.5913   25.2008   -1.6608 N.am      3 UNK        -0.4354 
     30 C          26.5227   26.1409   -1.4433 C.2       2 UNK         0.4964 
     31 O          26.4549   27.0018   -0.5611 O.2       2 UNK        -0.5047 
     32 CA         27.7532   26.1086   -2.3526 C.3       2 UNK         0.0288 
     33 CB         27.8933   27.4255   -3.1342 C.3       2 UNK        -0.2113 
     34 N          28.9118   25.9233   -1.4882 N.am      2 UNK        -0.4145 
     35 C          29.8560   24.9865   -1.6256 C.2       1 UNK         0.5006 
     36 O          29.9448   24.2440   -2.6060 O.2       1 UNK        -0.5103 
     37 C          26.5458   29.0919    2.4696 C.2       5 UNK         0.5055 
     38 O          26.6086   30.0843    3.1993 O.2       5 UNK        -0.5220 
     39 N          26.0381   29.1197    1.2292 N.am      6 UNK        -0.4450 
     40 CA         25.5341   30.3277    0.5722 C.3       6 UNK         0.0367 
     41 CB         24.5737   29.9305   -0.5598 C.3       6 UNK        -0.1929 
     42 C          26.6609   31.2241    0.0334 C.2       6 UNK         0.5070 
     43 O          26.4708   32.4376   -0.0588 O.2       6 UNK        -0.5237 
     44 N          27.8040   30.6212   -0.3151 N.am      7 UNK        -0.4739 
     45 CA         29.0108   31.3222   -0.7494 C.3       7 UNK         0.0276 
     46 CB         29.7305   30.4695   -1.8076 C.3       7 UNK        -0.1927 
     47 C          29.9353   31.5869    0.4472 C.2       7 UNK         0.5013 
     48 O          29.9423   30.8094    1.4042 O.2       7 UNK        -0.5193 
     49 N          30.7337   32.6550    0.3478 N.am      8 UNK        -0.4253 
     50 CA         31.8177   32.9584    1.2795 C.3       8 UNK         0.0242 
     51 CB         31.9520   34.4848    1.4186 C.3       8 UNK        -0.2000 
     52 C          33.1176   32.3487    0.7204 C.2       8 UNK         0.4948 
     53 O          33.4358   32.6236   -0.4374 O.2       8 UNK        -0.5275 
     54 N          33.8807   31.5532    1.4779 N.am      9 UNK        -0.4246 
     55 CA         33.6268   31.0159    2.8118 C.3       9 UNK         0.0261 
     56 CB         33.9982   32.0535    3.8881 C.3       9 UNK        -0.1959 
     57 C          34.4694   29.7424    2.9580 C.2       9 UNK         0.5033 
     58 O          35.4573   29.5801    2.2349 O.2       9 UNK        -0.5390 
     59 N          34.0691   28.8677    3.8836 N.am      10 UNK        -0.4215 
     60 CA         34.7460   27.6162    4.2082 C.3       10 UNK         0.0240 
     61 CB         34.2333   26.4856    3.2978 C.3       10 UNK        -0.1982 
     62 C          34.4946   27.3048    5.6861 C.2       10 UNK         0.4970 
     63 O          33.4396   27.6740    6.2089 O.2       10 UNK        -0.4916 
     64 N          35.4730   26.6478    6.3215 N.am      11 UNK        -0.4279 
     65 CA         35.4802   26.2589    7.7447 C.3       11 UNK         0.1003 
     66 C          35.4633   27.4509    8.7531 C.2       11 UNK         0.5709 
     67 N          35.8311   28.6614    8.3493 N.am      11 UNK        -0.7358 
     68 O          35.1490   27.2763    9.9285 O.2       11 UNK        -0.4999 
     69 C69        34.4245   25.1664    8.0788 C.3       12 UNK        -0.0954 
     70 S70        34.6764   23.6360    7.1177 S.3       12 UNK        -0.2268 
     71 C71        32.9710   23.0303    6.9421 C.3       12 UNK         0.0203 
     72 H72        33.0909   28.0208    0.6207 H         1 UNK         0.0888 
     73 H73        31.8820   29.1293   -0.0368 H         1 UNK         0.0888 
     74 H74        31.8742   28.7333    1.6818 H         1 UNK         0.0888 
     75 H75        32.5472   26.1076   -0.5105 H         1 UNK         0.3017 
     76 H76        30.2295   24.6493    0.4121 H         1 UNK         0.0873 
     77 H77        31.2576   22.7195   -0.7480 H         1 UNK         0.0745 
     78 H78        32.4402   23.7640   -1.4903 H         1 UNK         0.0745 
     79 H79        30.8271   22.4854    1.6154 H         1 UNK         0.0705 
     80 H80        32.2064   21.5918    2.1956 H         1 UNK         0.0705 
     81 H81        32.9816   21.9878    4.4313 H         1 UNK         0.1334 
     82 H82        31.4571   25.3010    6.6942 H         1 UNK         0.1417 
     83 H83        30.4751   24.9196    2.5517 H         1 UNK         0.1562 
     84 H84        30.2181   27.0804    3.7353 H         1 UNK         0.0748 
     85 H85        30.4618   27.1897    5.4639 H         1 UNK         0.0748 
     86 H86        28.3373   28.5610    4.5244 H         1 UNK         0.0940 
     87 H87        26.7961   28.0306    5.1371 H         1 UNK         0.0940 
     88 H88        27.8565   27.4397    2.3261 H         1 UNK         0.0703 
     89 H89        26.2491   25.9367    2.1425 H         1 UNK         0.3081 
     90 H90        24.3747   24.5460    3.2650 H         1 UNK         0.0719 
     91 H91        21.9382   26.4062    3.2576 H         1 UNK         0.0809 
     92 H92        21.8887   24.6432    3.2766 H         1 UNK         0.0809 
     93 H93        22.5559   25.5179    4.6438 H         1 UNK         0.0809 
     94 H94        22.9569   25.9066    1.0654 H         1 UNK         0.2990 
     95 H95        23.9333   24.0503   -1.2371 H         1 UNK         0.0690 
     96 H96        23.2126   26.2106   -2.3216 H         1 UNK         0.0788 
     97 H97        23.6515   27.0822   -0.8599 H         1 UNK         0.0788 
     98 H98        22.3470   25.8952   -0.8348 H         1 UNK         0.0788 
     99 H99        25.7661   24.5170   -2.3840 H         1 UNK         0.2993 
    100 H100       27.6643   25.2823   -3.0613 H         1 UNK         0.0949 
    101 H101       27.0565   27.5604   -3.8205 H         1 UNK         0.0767 
    102 H102       27.9093   28.2887   -2.4688 H         1 UNK         0.0767 
    103 H103       28.8083   27.4407   -3.7265 H         1 UNK         0.0767 
    104 H104       28.9259   26.4845   -0.6383 H         1 UNK         0.3013 
    105 H105       26.0711   28.2718    0.6629 H         1 UNK         0.3121 
    106 H106       24.9701   30.9124    1.3024 H         1 UNK         0.0774 
    107 H107       24.1890   30.8128   -1.0731 H         1 UNK         0.0815 
    108 H108       25.0648   29.3065   -1.3077 H         1 UNK         0.0815 
    109 H109       23.7143   29.3841   -0.1724 H         1 UNK         0.0815 
    110 H110       27.8975   29.6317   -0.1338 H         1 UNK         0.2987 
    111 H111       28.7429   32.2798   -1.2022 H         1 UNK         0.0949 
    112 H112       30.6832   30.9162   -2.0959 H         1 UNK         0.0806 
    113 H113       29.9369   29.4623   -1.4449 H         1 UNK         0.0806 
    114 H114       29.1313   30.3822   -2.7139 H         1 UNK         0.0806 
    115 H115       30.7114   33.2068   -0.4982 H         1 UNK         0.3010 
    116 H116       31.5738   32.5618    2.2641 H         1 UNK         0.0829 
    117 H117       31.0341   34.9292    1.8038 H         1 UNK         0.0813 
    118 H118       32.7532   34.7438    2.1118 H         1 UNK         0.0813 
    119 H119       32.1805   34.9630    0.4650 H         1 UNK         0.0813 
    120 H120       34.7194   31.1563    1.0697 H         1 UNK         0.3038 
    121 H121       32.5780   30.7294    2.9056 H         1 UNK         0.0769 
    122 H122       35.0472   32.3442    3.8175 H         1 UNK         0.0811 
    123 H123       33.8387   31.6539    4.8903 H         1 UNK         0.0811 
    124 H124       33.3980   32.9589    3.8073 H         1 UNK         0.0811 
    125 H125       33.2883   29.0833    4.4921 H         1 UNK         0.3204 
    126 H126       35.8221   27.7358    4.0629 H         1 UNK         0.0748 
    127 H127       34.5324   26.6448    2.2620 H         1 UNK         0.0771 
    128 H128       34.6285   25.5159    3.6042 H         1 UNK         0.0771 
    129 H129       33.1465   26.4158    3.3218 H         1 UNK         0.0771 
    130 H130       36.3011   26.3922    5.8037 H         1 UNK         0.2980 
    131 H131       36.4586   25.8049    7.9052 H         1 UNK         0.0545 
    132 H132       35.8286   29.4223    9.0100 H         1 UNK         0.3459 
    133 H133       36.1091   28.8216    7.3949 H         1 UNK         0.3459 
    134 H134       34.4756   24.8866    9.1323 H         1 UNK         0.0616 
    135 H135       33.4179   25.5512    7.9168 H         1 UNK         0.0616 
    136 H136       32.3939   23.2744    7.8354 H         1 UNK         0.0634 
    137 H137       32.9956   21.9408    6.8901 H         1 UNK         0.0634 
@<TRIPOS>BOND
     1    1    2 1    
     2    1   72 1    
     3    1   73 1    
     4    1   74 1    
     5    2    3 2    
     6    2    4 am   BACKBONE|DICT|INTERRES
     7    4    5 1    
     8    4   75 1    
     9    5    6 1    
    10    5   35 1    
    11    5   76 1    
    12    6    7 1    
    13    6   77 1    
    14    6   78 1    
    15    7    8 1    
    16    8    9 1    
    17    8   79 1    
    18    8   80 1    
    19    9   10 ar   
    20    9   14 ar   
    21   10   11 ar   
    22   10   81 1    
    23   11   12 ar   
    24   11   71 1    
    25   12   13 ar   
    26   12   82 1    
    27   13   14 ar   
    28   13   15 1    
    29   14   83 1    
    30   15   16 1    
    31   15   84 1    
    32   15   85 1    
    33   16   17 1    
    34   17   18 1    
    35   17   86 1    
    36   17   87 1    
    37   18   19 1    
    38   18   37 1    
    39   18   88 1    
    40   19   20 am   BACKBONE|DICT|INTERRES
    41   19   89 1    
    42   20   21 2    
    43   20   22 1    
    44   22   23 1    
    45   22   24 1    
    46   22   90 1    
    47   23   91 1    
    48   23   92 1    
    49   23   93 1    
    50   24   25 am   BACKBONE|DICT|INTERRES
    51   24   94 1    
    52   25   26 2    
    53   25   27 1    
    54   27   28 1    
    55   27   29 1    
    56   27   95 1    
    57   28   96 1    
    58   28   97 1    
    59   28   98 1    
    60   29   30 am   BACKBONE|DICT|INTERRES
    61   29   99 1    
    62   30   31 2    
    63   30   32 1    
    64   32   33 1    
    65   32   34 1    
    66   32  100 1    
    67   33  101 1    
    68   33  102 1    
    69   33  103 1    
    70   34   35 am   BACKBONE|DICT|INTERRES
    71   34  104 1    
    72   35   36 2    
    73   37   38 2    
    74   37   39 am   BACKBONE|DICT|INTERRES
    75   39   40 1    
    76   39  105 1    
    77   40   41 1    
    78   40   42 1    
    79   40  106 1    
    80   41  107 1    
    81   41  108 1    
    82   41  109 1    
    83   42   43 2    
    84   42   44 am   BACKBONE|DICT|INTERRES
    85   44   45 1    
    86   44  110 1    
    87   45   46 1    
    88   45   47 1    
    89   45  111 1    
    90   46  112 1    
    91   46  113 1    
    92   46  114 1    
    93   47   48 2    
    94   47   49 am   BACKBONE|DICT|INTERRES
    95   49   50 1    
    96   49  115 1    
    97   50   51 1    
    98   50   52 1    
    99   50  116 1    
   100   51  117 1    
   101   51  118 1    
   102   51  119 1    
   103   52   53 2    
   104   52   54 am   BACKBONE|DICT|INTERRES
   105   54   55 1    
   106   54  120 1    
   107   55   56 1    
   108   55   57 1    
   109   55  121 1    
   110   56  122 1    
   111   56  123 1    
   112   56  124 1    
   113   57   58 2    
   114   57   59 am   BACKBONE|DICT|INTERRES
   115   59   60 1    
   116   59  125 1    
   117   60   61 1    
   118   60   62 1    
   119   60  126 1    
   120   61  127 1    
   121   61  128 1    
   122   61  129 1    
   123   62   63 2    
   124   62   64 am   BACKBONE|DICT|INTERRES
   125   64   65 1    
   126   64  130 1    
   127   65   66 1    
   128   65   69 1    
   129   65  131 1    
   130   66   67 am   BACKBONE|DICT|INTERRES
   131   66   68 2    
   132   67  132 1    
   133   67  133 1    
   134   69   70 1    
   135   69  134 1    
   136   69  135 1    
   137   70   71 1    
   138   71  136 1    
   139   71  137 1    
@<TRIPOS>SUBSTRUCTURE
     1 UNK         1 GROUP             0       ****    0 ROOT    
