@<TRIPOS>MOLECULE
3R136
137   139    1
SMALL
USER_CHARGES


@<TRIPOS>ATOM
      1 CA         28.2735   20.3729   -5.5613 C.3       0 UNK        -0.1979 
      2 C          28.6039   21.6278   -4.7666 C.2       0 UNK         0.4864 
      3 O          28.6137   22.7219   -5.3320 O.2       0 UNK        -0.5359 
      4 N          28.8801   21.4745   -3.4638 N.am      1 UNK        -0.4318 
      5 CA         29.1901   22.5645   -2.5314 C.3       1 UNK         0.0824 
      6 C6         29.7502   22.0043   -1.1966 C.3       12 UNK        -0.0944 
      7 S7         30.2906   23.2943   -0.0274 S.3       12 UNK        -0.2672 
      8 C8         30.6152   22.3009    1.4572 C.3       12 UNK         0.0333 
      9 C9         30.9784   23.1895    2.6367 C.ar      12 UNK        -0.0807 
     10 C10        32.2051   23.8614    2.6529 C.ar      12 UNK        -0.0894 
     11 C11        32.5624   24.6662    3.7385 C.ar      12 UNK        -0.0804 
     12 C12        31.6901   24.7657    4.8250 C.ar      12 UNK        -0.0824 
     13 C13        30.4436   24.1369    4.8062 C.ar      12 UNK        -0.0762 
     14 C14        30.0966   23.3386    3.7125 C.ar      12 UNK        -0.0782 
     15 C15        29.4810   24.3147    5.9723 C.3       12 UNK         0.0230 
     16 S16        28.3875   25.7576    5.7451 S.3       12 UNK        -0.2608 
     17 C17        29.5202   27.1705    6.0433 C.3       12 UNK        -0.0989 
     18 CA         29.6713   28.1740    4.8597 C.3       5 UNK         0.0716 
     19 N          29.6111   27.5222    3.5469 N.am      5 UNK        -0.4135 
     20 C          29.6635   28.1064    2.3410 C.2       4 UNK         0.5031 
     21 O          29.8235   29.3145    2.1551 O.2       4 UNK        -0.5229 
     22 CA         29.5006   27.2003    1.1084 C.3       4 UNK         0.0329 
     23 CB         30.8828   26.8434    0.5397 C.3       4 UNK        -0.2001 
     24 N          28.7287   25.9730    1.3389 N.am      4 UNK        -0.4303 
     25 C          27.4458   25.9295    1.7290 C.2       3 UNK         0.5044 
     26 O          26.7635   26.9292    1.9542 O.2       3 UNK        -0.5152 
     27 CA         26.8323   24.5253    1.8804 C.3       3 UNK         0.0319 
     28 CB         25.6147   24.5055    2.8282 C.3       3 UNK        -0.2001 
     29 N          26.5014   23.9177    0.5858 N.am      3 UNK        -0.4354 
     30 C          25.6547   24.3732   -0.3542 C.2       2 UNK         0.4964 
     31 O          24.9692   25.3898   -0.2382 O.2       2 UNK        -0.5047 
     32 CA         25.5468   23.5250   -1.6424 C.3       2 UNK         0.0288 
     33 CB         24.9538   24.3079   -2.8346 C.3       2 UNK        -0.2113 
     34 N          26.8122   22.8785   -2.0202 N.am      2 UNK        -0.4145 
     35 C          27.9746   23.4898   -2.3050 C.2       1 UNK         0.5006 
     36 O          28.1191   24.7119   -2.3712 O.2       1 UNK        -0.5103 
     37 C          28.6825   29.3542    4.9816 C.2       5 UNK         0.5055 
     38 O          27.4794   29.1379    5.1363 O.2       5 UNK        -0.5220 
     39 N          29.2270   30.5762    4.8957 N.am      6 UNK        -0.4450 
     40 CA         28.5573   31.8817    4.9357 C.3       6 UNK         0.0367 
     41 CB         27.7939   32.0850    6.2616 C.3       6 UNK        -0.1929 
     42 C          27.6862   32.1873    3.7000 C.2       6 UNK         0.5070 
     43 O          26.9635   33.1850    3.7111 O.2       6 UNK        -0.5237 
     44 N          27.7829   31.3600    2.6521 N.am      7 UNK        -0.4739 
     45 CA         27.0988   31.5387    1.3705 C.3       7 UNK         0.0276 
     46 CB         26.3641   30.2406    1.0007 C.3       7 UNK        -0.1927 
     47 C          28.0927   31.9205    0.2656 C.2       7 UNK         0.5013 
     48 O          27.7664   32.7662   -0.5683 O.2       7 UNK        -0.5193 
     49 N          29.2785   31.2983    0.2794 N.am      8 UNK        -0.4253 
     50 CA         30.3509   31.5053   -0.6943 C.3       8 UNK         0.0242 
     51 CB         30.3630   30.3325   -1.6900 C.3       8 UNK        -0.2000 
     52 C          31.7290   31.6719   -0.0343 C.2       8 UNK         0.4948 
     53 O          32.6104   32.2606   -0.6625 O.2       8 UNK        -0.5275 
     54 N          31.9126   31.1724    1.1952 N.am      9 UNK        -0.4246 
     55 CA         33.1597   31.2591    1.9513 C.3       9 UNK         0.0261 
     56 CB         34.0480   30.0503    1.6073 C.3       9 UNK        -0.1959 
     57 C          32.8446   31.3044    3.4497 C.2       9 UNK         0.5033 
     58 O          31.7678   30.8702    3.8627 O.2       9 UNK        -0.5390 
     59 N          33.7888   31.8200    4.2465 N.am      10 UNK        -0.4215 
     60 CA         33.6776   31.8711    5.7077 C.3       10 UNK         0.0240 
     61 CB         34.7524   32.8100    6.2805 C.3       10 UNK        -0.1982 
     62 C          33.7678   30.4769    6.3516 C.2       10 UNK         0.4970 
     63 O          32.9818   30.1789    7.2520 O.2       10 UNK        -0.4916 
     64 N          34.7081   29.6572    5.8579 N.am      11 UNK        -0.4279 
     65 CA         34.9840   28.2800    6.3013 C.3       11 UNK         0.1003 
     66 C          35.4005   28.1891    7.8043 C.2       11 UNK         0.5709 
     67 N          35.2496   27.0410    8.4526 N.am      11 UNK        -0.7358 
     68 O          35.9253   29.1414    8.3799 O.2       11 UNK        -0.4999 
     69 C69        33.8537   27.2952    5.8778 C.3       12 UNK        -0.0954 
     70 S70        33.6693   27.2071    4.0609 S.3       12 UNK        -0.2268 
     71 C71        33.8862   25.4238    3.7308 C.3       12 UNK         0.0203 
     72 H72        28.9843   20.2478   -6.3776 H         1 UNK         0.0888 
     73 H73        28.3074   19.4763   -4.9425 H         1 UNK         0.0888 
     74 H74        27.2741   20.4520   -5.9884 H         1 UNK         0.0888 
     75 H75        28.8724   20.5447   -3.0687 H         1 UNK         0.3017 
     76 H76        29.9729   23.1712   -2.9925 H         1 UNK         0.0873 
     77 H77        29.0099   21.3707   -0.7046 H         1 UNK         0.0745 
     78 H78        30.6101   21.3636   -1.3993 H         1 UNK         0.0745 
     79 H79        31.4322   21.6060    1.2572 H         1 UNK         0.0705 
     80 H80        29.7381   21.6940    1.6875 H         1 UNK         0.0705 
     81 H81        32.8768   23.7606    1.8111 H         1 UNK         0.1334 
     82 H82        31.9773   25.3527    5.6819 H         1 UNK         0.1417 
     83 H83        29.1450   22.8253    3.7081 H         1 UNK         0.1562 
     84 H84        30.0294   24.4128    6.9105 H         1 UNK         0.0748 
     85 H85        28.8622   23.4224    6.0785 H         1 UNK         0.0748 
     86 H86        30.5022   26.7921    6.3141 H         1 UNK         0.0940 
     87 H87        29.1847   27.6798    6.9494 H         1 UNK         0.0940 
     88 H88        30.6784   28.5913    4.9320 H         1 UNK         0.0703 
     89 H89        29.4474   26.5268    3.5796 H         1 UNK         0.3081 
     90 H90        28.9648   27.7802    0.3544 H         1 UNK         0.0719 
     91 H91        30.7976   26.3266   -0.4163 H         1 UNK         0.0809 
     92 H92        31.4833   27.7384    0.3707 H         1 UNK         0.0809 
     93 H93        31.4449   26.2048    1.2212 H         1 UNK         0.0809 
     94 H94        29.2072   25.1036    1.1394 H         1 UNK         0.2990 
     95 H95        27.5966   23.8916    2.3289 H         1 UNK         0.0690 
     96 H96        25.2461   23.4911    2.9797 H         1 UNK         0.0788 
     97 H97        24.7898   25.1089    2.4482 H         1 UNK         0.0788 
     98 H98        25.8816   24.9044    3.8079 H         1 UNK         0.0788 
     99 H99        27.0150   23.0771    0.3649 H         1 UNK         0.2993 
    100 H100       24.8512   22.7182   -1.4059 H         1 UNK         0.0949 
    101 H101       25.5572   25.1805   -3.0869 H         1 UNK         0.0767 
    102 H102       24.8819   23.6816   -3.7239 H         1 UNK         0.0767 
    103 H103       23.9478   24.6636   -2.6084 H         1 UNK         0.0767 
    104 H104       26.8037   21.8679   -2.0137 H         1 UNK         0.3013 
    105 H105       30.2181   30.6252    4.6445 H         1 UNK         0.3121 
    106 H106       29.3636   32.6162    4.9105 H         1 UNK         0.0774 
    107 H107       27.4452   33.1139    6.3577 H         1 UNK         0.0815 
    108 H108       26.9169   31.4409    6.3284 H         1 UNK         0.0815 
    109 H109       28.4302   31.8791    7.1221 H         1 UNK         0.0815 
    110 H110       28.4223   30.5748    2.7233 H         1 UNK         0.2987 
    111 H111       26.3576   32.3380    1.4404 H         1 UNK         0.0949 
    112 H112       25.8131   30.3557    0.0664 H         1 UNK         0.0806 
    113 H113       27.0541   29.4066    0.8714 H         1 UNK         0.0806 
    114 H114       25.6452   29.9585    1.7701 H         1 UNK         0.0806 
    115 H115       29.4493   30.5965    0.9964 H         1 UNK         0.3010 
    116 H116       30.1685   32.4257   -1.2533 H         1 UNK         0.0829 
    117 H117       29.4197   30.2647   -2.2321 H         1 UNK         0.0813 
    118 H118       31.1542   30.4553   -2.4309 H         1 UNK         0.0813 
    119 H119       30.5294   29.3795   -1.1880 H         1 UNK         0.0813 
    120 H120       31.1618   30.6971    1.6889 H         1 UNK         0.3038 
    121 H121       33.6832   32.1822    1.6931 H         1 UNK         0.0769 
    122 H122       34.9586   30.0380    2.2071 H         1 UNK         0.0811 
    123 H123       34.3505   30.0683    0.5602 H         1 UNK         0.0811 
    124 H124       33.5247   29.1102    1.7843 H         1 UNK         0.0811 
    125 H125       34.6426   32.1706    3.8359 H         1 UNK         0.3204 
    126 H126       32.6991   32.2874    5.9584 H         1 UNK         0.0748 
    127 H127       34.6761   32.8706    7.3672 H         1 UNK         0.0771 
    128 H128       35.7608   32.4682    6.0442 H         1 UNK         0.0771 
    129 H129       34.6411   33.8229    5.8929 H         1 UNK         0.0771 
    130 H130       35.3118   30.0062    5.1299 H         1 UNK         0.2980 
    131 H131       35.8859   27.9844    5.7643 H         1 UNK         0.0545 
    132 H132       34.8504   26.2336    8.0021 H         1 UNK         0.3459 
    133 H133       35.5431   26.9835    9.4153 H         1 UNK         0.3459 
    134 H134       32.8992   27.5943    6.3125 H         1 UNK         0.0616 
    135 H135       34.0566   26.2916    6.2500 H         1 UNK         0.0616 
    136 H136       34.5733   24.9779    4.4505 H         1 UNK         0.0634 
    137 H137       34.3658   25.3274    2.7557 H         1 UNK         0.0634 
@<TRIPOS>BOND
     1    1    2 1    
     2    1   72 1    
     3    1   73 1    
     4    1   74 1    
     5    2    3 2    
     6    2    4 am   BACKBONE|DICT|INTERRES
     7    4    5 1    
     8    4   75 1    
     9    5    6 1    
    10    5   35 1    
    11    5   76 1    
    12    6    7 1    
    13    6   77 1    
    14    6   78 1    
    15    7    8 1    
    16    8    9 1    
    17    8   79 1    
    18    8   80 1    
    19    9   10 ar   
    20    9   14 ar   
    21   10   11 ar   
    22   10   81 1    
    23   11   12 ar   
    24   11   71 1    
    25   12   13 ar   
    26   12   82 1    
    27   13   14 ar   
    28   13   15 1    
    29   14   83 1    
    30   15   16 1    
    31   15   84 1    
    32   15   85 1    
    33   16   17 1    
    34   17   18 1    
    35   17   86 1    
    36   17   87 1    
    37   18   19 1    
    38   18   37 1    
    39   18   88 1    
    40   19   20 am   BACKBONE|DICT|INTERRES
    41   19   89 1    
    42   20   21 2    
    43   20   22 1    
    44   22   23 1    
    45   22   24 1    
    46   22   90 1    
    47   23   91 1    
    48   23   92 1    
    49   23   93 1    
    50   24   25 am   BACKBONE|DICT|INTERRES
    51   24   94 1    
    52   25   26 2    
    53   25   27 1    
    54   27   28 1    
    55   27   29 1    
    56   27   95 1    
    57   28   96 1    
    58   28   97 1    
    59   28   98 1    
    60   29   30 am   BACKBONE|DICT|INTERRES
    61   29   99 1    
    62   30   31 2    
    63   30   32 1    
    64   32   33 1    
    65   32   34 1    
    66   32  100 1    
    67   33  101 1    
    68   33  102 1    
    69   33  103 1    
    70   34   35 am   BACKBONE|DICT|INTERRES
    71   34  104 1    
    72   35   36 2    
    73   37   38 2    
    74   37   39 am   BACKBONE|DICT|INTERRES
    75   39   40 1    
    76   39  105 1    
    77   40   41 1    
    78   40   42 1    
    79   40  106 1    
    80   41  107 1    
    81   41  108 1    
    82   41  109 1    
    83   42   43 2    
    84   42   44 am   BACKBONE|DICT|INTERRES
    85   44   45 1    
    86   44  110 1    
    87   45   46 1    
    88   45   47 1    
    89   45  111 1    
    90   46  112 1    
    91   46  113 1    
    92   46  114 1    
    93   47   48 2    
    94   47   49 am   BACKBONE|DICT|INTERRES
    95   49   50 1    
    96   49  115 1    
    97   50   51 1    
    98   50   52 1    
    99   50  116 1    
   100   51  117 1    
   101   51  118 1    
   102   51  119 1    
   103   52   53 2    
   104   52   54 am   BACKBONE|DICT|INTERRES
   105   54   55 1    
   106   54  120 1    
   107   55   56 1    
   108   55   57 1    
   109   55  121 1    
   110   56  122 1    
   111   56  123 1    
   112   56  124 1    
   113   57   58 2    
   114   57   59 am   BACKBONE|DICT|INTERRES
   115   59   60 1    
   116   59  125 1    
   117   60   61 1    
   118   60   62 1    
   119   60  126 1    
   120   61  127 1    
   121   61  128 1    
   122   61  129 1    
   123   62   63 2    
   124   62   64 am   BACKBONE|DICT|INTERRES
   125   64   65 1    
   126   64  130 1    
   127   65   66 1    
   128   65   69 1    
   129   65  131 1    
   130   66   67 am   BACKBONE|DICT|INTERRES
   131   66   68 2    
   132   67  132 1    
   133   67  133 1    
   134   69   70 1    
   135   69  134 1    
   136   69  135 1    
   137   70   71 1    
   138   71  136 1    
   139   71  137 1    
@<TRIPOS>SUBSTRUCTURE
     1 UNK         1 GROUP             0       ****    0 ROOT    
