@<TRIPOS>MOLECULE
3R136
137   139    1
SMALL
USER_CHARGES


@<TRIPOS>ATOM
      1 CA         31.6273   21.0226    3.7433 C.3       0 UNK        -0.1979 
      2 C          30.6722   20.5254    2.6675 C.2       0 UNK         0.4864 
      3 O          30.9748   19.5484    1.9812 O.2       0 UNK        -0.5359 
      4 N          29.5273   21.1949    2.5138 N.am      1 UNK        -0.4318 
      5 CA         28.4851   20.9092    1.5291 C.3       1 UNK         0.0824 
      6 C6         28.8756   21.3279    0.0817 C.3       12 UNK        -0.0944 
      7 S7         29.4124   23.0697   -0.0783 S.3       12 UNK        -0.2672 
      8 C8         31.1959   22.8477   -0.3578 C.3       12 UNK         0.0333 
      9 C9         31.9878   24.1174   -0.0800 C.ar      12 UNK        -0.0807 
     10 C10        32.8494   24.1814    1.0207 C.ar      12 UNK        -0.0894 
     11 C11        33.6521   25.3071    1.2287 C.ar      12 UNK        -0.0804 
     12 C12        33.5622   26.3885    0.3474 C.ar      12 UNK        -0.0824 
     13 C13        32.6957   26.3431   -0.7484 C.ar      12 UNK        -0.0762 
     14 C14        31.9128   25.2028   -0.9587 C.ar      12 UNK        -0.0782 
     15 C15        32.6625   27.4942   -1.7445 C.3       12 UNK         0.0230 
     16 S16        31.0457   28.3248   -1.8114 S.3       12 UNK        -0.2608 
     17 C17        31.0249   29.2651   -0.2485 C.3       12 UNK        -0.0989 
     18 CA         29.6342   29.1708    0.4284 C.3       5 UNK         0.0716 
     19 N          29.3200   27.8198    0.8986 N.am      5 UNK        -0.4135 
     20 C          29.8048   27.2019    1.9856 C.2       4 UNK         0.5031 
     21 O          30.6865   27.6705    2.7089 O.2       4 UNK        -0.5229 
     22 CA         29.1800   25.8395    2.3487 C.3       4 UNK         0.0329 
     23 CB         28.9538   25.7012    3.8655 C.3       4 UNK        -0.2001 
     24 N          27.9403   25.5048    1.6302 N.am      4 UNK        -0.4303 
     25 C          26.7701   26.1666    1.6370 C.2       3 UNK         0.5044 
     26 O          26.5835   27.2473    2.1966 O.2       3 UNK        -0.5152 
     27 CA         25.6177   25.4952    0.8847 C.3       3 UNK         0.0319 
     28 CB         25.8279   25.6025   -0.6398 C.3       3 UNK        -0.2001 
     29 N          25.5229   24.1039    1.3210 N.am      3 UNK        -0.4354 
     30 C          24.5605   23.2226    1.0346 C.2       2 UNK         0.4964 
     31 O          23.5869   23.4796    0.3242 O.2       2 UNK        -0.5047 
     32 CA         24.7283   21.8122    1.6456 C.3       2 UNK         0.0288 
     33 CB         23.6532   20.8221    1.1577 C.3       2 UNK        -0.2113 
     34 N          26.0547   21.2350    1.3875 N.am      2 UNK        -0.4145 
     35 C          27.1901   21.5876    2.0065 C.2       1 UNK         0.5006 
     36 O          27.2395   22.4468    2.8938 O.2       1 UNK        -0.5103 
     37 C          29.4148   30.2156    1.5427 C.2       5 UNK         0.5055 
     38 O          30.3241   30.9847    1.8575 O.2       5 UNK        -0.5220 
     39 N          28.2090   30.2090    2.1333 N.am      6 UNK        -0.4450 
     40 CA         27.7821   31.0676    3.2480 C.3       6 UNK         0.0367 
     41 CB         26.3300   30.7241    3.6149 C.3       6 UNK        -0.1929 
     42 C          27.9305   32.5819    3.0077 C.2       6 UNK         0.5070 
     43 O          28.1061   33.3311    3.9681 O.2       6 UNK        -0.5237 
     44 N          27.8740   33.0034    1.7385 N.am      7 UNK        -0.4739 
     45 CA         28.0837   34.3867    1.3063 C.3       7 UNK         0.0276 
     46 CB         27.4065   34.5786   -0.0617 C.3       7 UNK        -0.1927 
     47 C          29.5681   34.8010    1.2348 C.2       7 UNK         0.5013 
     48 O          29.8356   35.9867    1.0322 O.2       7 UNK        -0.5193 
     49 N          30.4998   33.8461    1.3650 N.am      8 UNK        -0.4253 
     50 CA         31.9379   34.0573    1.2242 C.3       8 UNK         0.0242 
     51 CB         32.3788   33.6597   -0.2003 C.3       8 UNK        -0.2000 
     52 C          32.6834   33.3088    2.3379 C.2       8 UNK         0.4948 
     53 O          32.8505   33.8658    3.4234 O.2       8 UNK        -0.5275 
     54 N          33.1427   32.0839    2.0442 N.am      9 UNK        -0.4246 
     55 CA         33.9685   31.2495    2.9215 C.3       9 UNK         0.0261 
     56 CB         34.4488   30.0131    2.1438 C.3       9 UNK        -0.1959 
     57 C          33.2789   30.8216    4.2286 C.2       9 UNK         0.5033 
     58 O          33.9480   30.7867    5.2625 O.2       9 UNK        -0.5390 
     59 N          31.9745   30.5122    4.1532 N.am      10 UNK        -0.4215 
     60 CA         31.0975   30.0611    5.2417 C.3       10 UNK         0.0240 
     61 CB         30.7277   31.2493    6.1526 C.3       10 UNK        -0.1982 
     62 C          31.6646   28.8561    6.0162 C.2       10 UNK         0.4970 
     63 O          31.9189   28.9484    7.2189 O.2       10 UNK        -0.4916 
     64 N          31.8663   27.7512    5.2921 N.am      11 UNK        -0.4279 
     65 CA         32.4891   26.5095    5.7794 C.3       11 UNK         0.1003 
     66 C          31.6283   25.6616    6.7641 C.2       11 UNK         0.5709 
     67 N          30.3987   26.0441    7.0876 N.am      11 UNK        -0.7358 
     68 O          32.0924   24.6362    7.2569 O.2       11 UNK        -0.4999 
     69 C69        33.0194   25.6561    4.5969 C.3       12 UNK        -0.0954 
     70 S70        34.2804   26.5520    3.6358 S.3       12 UNK        -0.2268 
     71 C71        34.6776   25.3287    2.3539 C.3       12 UNK         0.0203 
     72 H72        32.6077   21.2222    3.3117 H         1 UNK         0.0888 
     73 H73        31.2717   21.9407    4.2114 H         1 UNK         0.0888 
     74 H74        31.7439   20.2674    4.5200 H         1 UNK         0.0888 
     75 H75        29.2868   21.9656    3.1259 H         1 UNK         0.3017 
     76 H76        28.2984   19.8333    1.5434 H         1 UNK         0.0873 
     77 H77        28.0442   21.1656   -0.6062 H         1 UNK         0.0745 
     78 H78        29.6685   20.6724   -0.2812 H         1 UNK         0.0745 
     79 H79        31.5645   22.0350    0.2689 H         1 UNK         0.0705 
     80 H80        31.3585   22.5336   -1.3898 H         1 UNK         0.0705 
     81 H81        32.9271   23.3375    1.6922 H         1 UNK         0.1334 
     82 H82        34.1924   27.2533    0.5030 H         1 UNK         0.1417 
     83 H83        31.2573   25.1533   -1.8178 H         1 UNK         0.1562 
     84 H84        32.8939   27.1042   -2.7367 H         1 UNK         0.0748 
     85 H85        33.4347   28.2322   -1.5214 H         1 UNK         0.0748 
     86 H86        31.2752   30.2989   -0.4906 H         1 UNK         0.0940 
     87 H87        31.8033   28.9048    0.4250 H         1 UNK         0.0940 
     88 H88        28.8856   29.4090   -0.3290 H         1 UNK         0.0703 
     89 H89        28.6080   27.3328    0.3763 H         1 UNK         0.3081 
     90 H90        29.9176   25.0911    2.0568 H         1 UNK         0.0719 
     91 H91        29.8963   25.7736    4.4012 H         1 UNK         0.0809 
     92 H92        28.2966   26.4813    4.2510 H         1 UNK         0.0809 
     93 H93        28.5159   24.7353    4.1175 H         1 UNK         0.0809 
     94 H94        28.0001   24.6596    1.0758 H         1 UNK         0.2990 
     95 H95        24.6916   26.0062    1.1556 H         1 UNK         0.0690 
     96 H96        24.9607   25.2380   -1.1901 H         1 UNK         0.0788 
     97 H97        26.6954   25.0312   -0.9726 H         1 UNK         0.0788 
     98 H98        25.9814   26.6396   -0.9413 H         1 UNK         0.0788 
     99 H99        26.2464   23.7929    1.9660 H         1 UNK         0.2993 
    100 H100       24.6062   21.9238    2.7255 H         1 UNK         0.0949 
    101 H101       23.7589   19.8508    1.6416 H         1 UNK         0.0767 
    102 H102       22.6509   21.1867    1.3875 H         1 UNK         0.0767 
    103 H103       23.7059   20.6683    0.0790 H         1 UNK         0.0767 
    104 H104       26.1007   20.5487    0.6479 H         1 UNK         0.3013 
    105 H105       27.5464   29.4994    1.8471 H         1 UNK         0.3121 
    106 H106       28.4060   30.8262    4.1069 H         1 UNK         0.0774 
    107 H107       25.9886   31.3201    4.4625 H         1 UNK         0.0815 
    108 H108       25.6484   30.9157    2.7853 H         1 UNK         0.0815 
    109 H109       26.2291   29.6756    3.8969 H         1 UNK         0.0815 
    110 H110       27.7186   32.3176    1.0141 H         1 UNK         0.2987 
    111 H111       27.5993   35.0543    2.0226 H         1 UNK         0.0949 
    112 H112       27.8543   33.9434   -0.8270 H         1 UNK         0.0806 
    113 H113       26.3417   34.3496   -0.0139 H         1 UNK         0.0806 
    114 H114       27.4970   35.6110   -0.4025 H         1 UNK         0.0806 
    115 H115       30.2144   32.8956    1.5859 H         1 UNK         0.3010 
    116 H116       32.1774   35.1139    1.3629 H         1 UNK         0.0829 
    117 H117       31.9451   34.3322   -0.9407 H         1 UNK         0.0813 
    118 H118       33.4625   33.7208   -0.3105 H         1 UNK         0.0813 
    119 H119       32.0708   32.6473   -0.4618 H         1 UNK         0.0813 
    120 H120       32.9222   31.7034    1.1365 H         1 UNK         0.3038 
    121 H121       34.8461   31.8401    3.1929 H         1 UNK         0.0769 
    122 H122       35.1432   29.4253    2.7457 H         1 UNK         0.0811 
    123 H123       34.9712   30.2902    1.2282 H         1 UNK         0.0811 
    124 H124       33.6196   29.3568    1.8783 H         1 UNK         0.0811 
    125 H125       31.5237   30.5998    3.2444 H         1 UNK         0.3204 
    126 H126       30.1856   29.7002    4.7681 H         1 UNK         0.0748 
    127 H127       30.0174   30.9467    6.9229 H         1 UNK         0.0771 
    128 H128       31.6041   31.6583    6.6568 H         1 UNK         0.0771 
    129 H129       30.2653   32.0552    5.5821 H         1 UNK         0.0771 
    130 H130       31.5956   27.7539    4.3098 H         1 UNK         0.2980 
    131 H131       33.3575   26.8106    6.3684 H         1 UNK         0.0545 
    132 H132       30.0164   26.8985    6.7186 H         1 UNK         0.3459 
    133 H133       29.8630   25.4853    7.7322 H         1 UNK         0.3459 
    134 H134       32.2058   25.3675    3.9296 H         1 UNK         0.0616 
    135 H135       33.4731   24.7305    4.9558 H         1 UNK         0.0616 
    136 H136       34.7839   24.3435    2.8106 H         1 UNK         0.0634 
    137 H137       35.6538   25.5746    1.9336 H         1 UNK         0.0634 
@<TRIPOS>BOND
     1    1    2 1    
     2    1   72 1    
     3    1   73 1    
     4    1   74 1    
     5    2    3 2    
     6    2    4 am   BACKBONE|DICT|INTERRES
     7    4    5 1    
     8    4   75 1    
     9    5    6 1    
    10    5   35 1    
    11    5   76 1    
    12    6    7 1    
    13    6   77 1    
    14    6   78 1    
    15    7    8 1    
    16    8    9 1    
    17    8   79 1    
    18    8   80 1    
    19    9   10 ar   
    20    9   14 ar   
    21   10   11 ar   
    22   10   81 1    
    23   11   12 ar   
    24   11   71 1    
    25   12   13 ar   
    26   12   82 1    
    27   13   14 ar   
    28   13   15 1    
    29   14   83 1    
    30   15   16 1    
    31   15   84 1    
    32   15   85 1    
    33   16   17 1    
    34   17   18 1    
    35   17   86 1    
    36   17   87 1    
    37   18   19 1    
    38   18   37 1    
    39   18   88 1    
    40   19   20 am   BACKBONE|DICT|INTERRES
    41   19   89 1    
    42   20   21 2    
    43   20   22 1    
    44   22   23 1    
    45   22   24 1    
    46   22   90 1    
    47   23   91 1    
    48   23   92 1    
    49   23   93 1    
    50   24   25 am   BACKBONE|DICT|INTERRES
    51   24   94 1    
    52   25   26 2    
    53   25   27 1    
    54   27   28 1    
    55   27   29 1    
    56   27   95 1    
    57   28   96 1    
    58   28   97 1    
    59   28   98 1    
    60   29   30 am   BACKBONE|DICT|INTERRES
    61   29   99 1    
    62   30   31 2    
    63   30   32 1    
    64   32   33 1    
    65   32   34 1    
    66   32  100 1    
    67   33  101 1    
    68   33  102 1    
    69   33  103 1    
    70   34   35 am   BACKBONE|DICT|INTERRES
    71   34  104 1    
    72   35   36 2    
    73   37   38 2    
    74   37   39 am   BACKBONE|DICT|INTERRES
    75   39   40 1    
    76   39  105 1    
    77   40   41 1    
    78   40   42 1    
    79   40  106 1    
    80   41  107 1    
    81   41  108 1    
    82   41  109 1    
    83   42   43 2    
    84   42   44 am   BACKBONE|DICT|INTERRES
    85   44   45 1    
    86   44  110 1    
    87   45   46 1    
    88   45   47 1    
    89   45  111 1    
    90   46  112 1    
    91   46  113 1    
    92   46  114 1    
    93   47   48 2    
    94   47   49 am   BACKBONE|DICT|INTERRES
    95   49   50 1    
    96   49  115 1    
    97   50   51 1    
    98   50   52 1    
    99   50  116 1    
   100   51  117 1    
   101   51  118 1    
   102   51  119 1    
   103   52   53 2    
   104   52   54 am   BACKBONE|DICT|INTERRES
   105   54   55 1    
   106   54  120 1    
   107   55   56 1    
   108   55   57 1    
   109   55  121 1    
   110   56  122 1    
   111   56  123 1    
   112   56  124 1    
   113   57   58 2    
   114   57   59 am   BACKBONE|DICT|INTERRES
   115   59   60 1    
   116   59  125 1    
   117   60   61 1    
   118   60   62 1    
   119   60  126 1    
   120   61  127 1    
   121   61  128 1    
   122   61  129 1    
   123   62   63 2    
   124   62   64 am   BACKBONE|DICT|INTERRES
   125   64   65 1    
   126   64  130 1    
   127   65   66 1    
   128   65   69 1    
   129   65  131 1    
   130   66   67 am   BACKBONE|DICT|INTERRES
   131   66   68 2    
   132   67  132 1    
   133   67  133 1    
   134   69   70 1    
   135   69  134 1    
   136   69  135 1    
   137   70   71 1    
   138   71  136 1    
   139   71  137 1    
@<TRIPOS>SUBSTRUCTURE
     1 UNK         1 GROUP             0       ****    0 ROOT    
