@<TRIPOS>MOLECULE
3R136
137   139    1
SMALL
USER_CHARGES


@<TRIPOS>ATOM
      1 CA         27.2250   18.3291   -2.6675 C.3       0 UNK        -0.1979 
      2 C          27.7135   19.6970   -2.2141 C.2       0 UNK         0.4864 
      3 O          27.3510   20.7073   -2.8192 O.2       0 UNK        -0.5359 
      4 N          28.5393   19.7377   -1.1600 N.am      1 UNK        -0.4318 
      5 CA         29.0509   20.9657   -0.5471 C.3       1 UNK         0.0824 
      6 C6         30.2789   20.6653    0.3475 C.3       12 UNK        -0.0944 
      7 S7         31.1041   22.1741    0.9622 S.3       12 UNK        -0.2672 
      8 C8         31.2958   21.7769    2.7281 C.3       12 UNK         0.0333 
      9 C9         31.3466   23.0439    3.5634 C.ar      12 UNK        -0.0807 
     10 C10        32.5596   23.6875    3.8154 C.ar      12 UNK        -0.0894 
     11 C11        32.6034   24.8595    4.5779 C.ar      12 UNK        -0.0804 
     12 C12        31.4045   25.3867    5.0842 C.ar      12 UNK        -0.0824 
     13 C13        30.1815   24.7549    4.8351 C.ar      12 UNK        -0.0762 
     14 C14        30.1669   23.5738    4.0853 C.ar      12 UNK        -0.0782 
     15 C15        28.8894   25.3408    5.4007 C.3       12 UNK         0.0230 
     16 S16        27.4895   25.1908    4.2394 S.3       12 UNK        -0.2608 
     17 C17        26.8087   26.8783    4.1508 C.3       12 UNK        -0.0989 
     18 CA         27.7755   27.9880    3.6469 C.3       5 UNK         0.0716 
     19 N          28.7070   27.5512    2.6040 N.am      5 UNK        -0.4135 
     20 C          29.7872   28.2385    2.2026 C.2       4 UNK         0.5031 
     21 O          30.1446   29.3095    2.6934 O.2       4 UNK        -0.5229 
     22 CA         30.5894   27.6568    1.0271 C.3       4 UNK         0.0329 
     23 CB         31.6160   26.6311    1.5320 C.3       4 UNK        -0.2001 
     24 N          29.7376   27.0467    0.0032 N.am      4 UNK        -0.4303 
     25 C          28.8235   27.7136   -0.7179 C.2       3 UNK         0.5044 
     26 O          28.6470   28.9285   -0.6438 O.2       3 UNK        -0.5152 
     27 CA         27.9119   26.8797   -1.6353 C.3       3 UNK         0.0319 
     28 CB         28.5490   26.7225   -3.0248 C.3       3 UNK        -0.2001 
     29 N          27.5679   25.5560   -1.1012 N.am      3 UNK        -0.4354 
     30 C          26.9680   25.3287    0.0801 C.2       2 UNK         0.4964 
     31 O          26.6463   26.2249    0.8618 O.2       2 UNK        -0.5047 
     32 CA         26.7048   23.8654    0.4647 C.3       2 UNK         0.0288 
     33 CB         25.2885   23.4493    0.0203 C.3       2 UNK        -0.2113 
     34 N          27.7230   22.9763   -0.1048 N.am      2 UNK        -0.4145 
     35 C          27.9153   21.6896    0.2110 C.2       1 UNK         0.5006 
     36 O          27.2542   21.0727    1.0507 O.2       1 UNK        -0.5103 
     37 C          26.9625   29.2000    3.1619 C.2       5 UNK         0.5055 
     38 O          26.8745   30.1986    3.8768 O.2       5 UNK        -0.5220 
     39 N          26.4115   29.0918    1.9416 N.am      6 UNK        -0.4450 
     40 CA         25.6197   30.1299    1.2707 C.3       6 UNK         0.0367 
     41 CB         25.0809   29.5819   -0.0597 C.3       6 UNK        -0.1929 
     42 C          26.3952   31.4397    1.0425 C.2       6 UNK         0.5070 
     43 O          25.8078   32.5175    1.1275 O.2       6 UNK        -0.5237 
     44 N          27.7094   31.3240    0.8164 N.am      7 UNK        -0.4739 
     45 CA         28.6690   32.4267    0.7282 C.3       7 UNK         0.0276 
     46 CB         29.8662   31.9540   -0.1123 C.3       7 UNK        -0.1927 
     47 C          29.1129   32.9875    2.0997 C.2       7 UNK         0.5013 
     48 O          30.0836   33.7439    2.1440 O.2       7 UNK        -0.5193 
     49 N          28.4010   32.6303    3.1804 N.am      8 UNK        -0.4253 
     50 CA         28.5892   33.0526    4.5727 C.3       8 UNK         0.0242 
     51 CB         28.4468   34.5830    4.7270 C.3       8 UNK        -0.2000 
     52 C          29.8817   32.4888    5.1869 C.2       8 UNK         0.4948 
     53 O          30.6757   33.2416    5.7543 O.2       8 UNK        -0.5275 
     54 N          30.0454   31.1624    5.0683 N.am      9 UNK        -0.4246 
     55 CA         31.1729   30.3537    5.5487 C.3       9 UNK         0.0261 
     56 CB         31.2525   30.3602    7.0900 C.3       9 UNK        -0.1959 
     57 C          32.4941   30.7535    4.8691 C.2       9 UNK         0.5033 
     58 O          33.4795   31.0637    5.5439 O.2       9 UNK        -0.5390 
     59 N          32.4946   30.7263    3.5301 N.am      10 UNK        -0.4215 
     60 CA         33.6443   31.0347    2.6720 C.3       10 UNK         0.0240 
     61 CB         33.1373   31.4390    1.2776 C.3       10 UNK        -0.1982 
     62 C          34.6498   29.8671    2.6205 C.2       10 UNK         0.4970 
     63 O          34.9426   29.3427    1.5445 O.2       10 UNK        -0.4916 
     64 N          35.1339   29.4660    3.7983 N.am      11 UNK        -0.4279 
     65 CA         36.0113   28.3076    4.0146 C.3       11 UNK         0.1003 
     66 C          37.5275   28.6129    3.8498 C.2       11 UNK         0.5709 
     67 N          37.9380   29.8559    3.6263 N.am      11 UNK        -0.7358 
     68 O          38.3483   27.7006    3.9122 O.2       11 UNK        -0.4999 
     69 C69        35.7088   27.6248    5.3753 C.3       12 UNK        -0.0954 
     70 S70        33.9499   27.1698    5.5499 S.3       12 UNK        -0.2268 
     71 C71        33.9718   25.4983    4.8219 C.3       12 UNK         0.0203 
     72 H72        27.5212   18.1482   -3.7004 H         1 UNK         0.0888 
     73 H73        27.6317   17.5262   -2.0527 H         1 UNK         0.0888 
     74 H74        26.1379   18.2818   -2.6109 H         1 UNK         0.0888 
     75 H75        28.7779   18.8784   -0.6858 H         1 UNK         0.3017 
     76 H76        29.3908   21.6110   -1.3606 H         1 UNK         0.0873 
     77 H77        29.9920   20.0181    1.1780 H         1 UNK         0.0745 
     78 H78        31.0207   20.1038   -0.2229 H         1 UNK         0.0745 
     79 H79        30.4665   21.1558    3.0700 H         1 UNK         0.0705 
     80 H80        32.2022   21.1865    2.8706 H         1 UNK         0.0705 
     81 H81        33.4743   23.2737    3.4125 H         1 UNK         0.1334 
     82 H82        31.4104   26.2881    5.6794 H         1 UNK         0.1417 
     83 H83        29.2320   23.0652    3.8937 H         1 UNK         0.1562 
     84 H84        29.0347   26.3855    5.6761 H         1 UNK         0.0748 
     85 H85        28.6383   24.8131    6.3214 H         1 UNK         0.0748 
     86 H86        26.4184   27.1458    5.1347 H         1 UNK         0.0940 
     87 H87        25.9326   26.7991    3.5030 H         1 UNK         0.0940 
     88 H88        28.3779   28.3182    4.4955 H         1 UNK         0.0703 
     89 H89        28.4509   26.7027    2.1183 H         1 UNK         0.3081 
     90 H90        31.1322   28.4814    0.5603 H         1 UNK         0.0719 
     91 H91        31.1334   25.7571    1.9713 H         1 UNK         0.0809 
     92 H92        32.2639   26.2862    0.7262 H         1 UNK         0.0809 
     93 H93        32.2599   27.0665    2.2983 H         1 UNK         0.0809 
     94 H94        29.8220   26.0501   -0.1299 H         1 UNK         0.2990 
     95 H95        26.9776   27.4317   -1.7524 H         1 UNK         0.0690 
     96 H96        27.8697   26.2297   -3.7207 H         1 UNK         0.0788 
     97 H97        29.4712   26.1413   -2.9850 H         1 UNK         0.0788 
     98 H98        28.7957   27.6956   -3.4525 H         1 UNK         0.0788 
     99 H99        27.7153   24.7798   -1.7282 H         1 UNK         0.2993 
    100 H100       26.7667   23.8004    1.5531 H         1 UNK         0.0949 
    101 H101       25.0214   22.4626    0.3982 H         1 UNK         0.0767 
    102 H102       24.5398   24.1476    0.3977 H         1 UNK         0.0767 
    103 H103       25.1981   23.4266   -1.0664 H         1 UNK         0.0767 
    104 H104       28.3660   23.3998   -0.7567 H         1 UNK         0.3013 
    105 H105       26.5335   28.2161    1.4420 H         1 UNK         0.3121 
    106 H106       24.7699   30.3595    1.9168 H         1 UNK         0.0774 
    107 H107       25.8873   29.3599   -0.7588 H         1 UNK         0.0815 
    108 H108       24.4247   30.3078   -0.5416 H         1 UNK         0.0815 
    109 H109       24.5029   28.6695    0.0884 H         1 UNK         0.0815 
    110 H110       28.0887   30.3917    0.6827 H         1 UNK         0.2987 
    111 H111       28.1945   33.2545    0.1969 H         1 UNK         0.0949 
    112 H112       30.3620   31.1034    0.3545 H         1 UNK         0.0806 
    113 H113       29.5507   31.6454   -1.1091 H         1 UNK         0.0806 
    114 H114       30.6049   32.7457   -0.2409 H         1 UNK         0.0806 
    115 H115       27.6570   31.9548    3.0443 H         1 UNK         0.3010 
    116 H116       27.7702   32.5992    5.1336 H         1 UNK         0.0829 
    117 H117       29.2620   35.1212    4.2427 H         1 UNK         0.0813 
    118 H118       27.5088   34.9393    4.3011 H         1 UNK         0.0813 
    119 H119       28.4539   34.8686    5.7795 H         1 UNK         0.0813 
    120 H120       29.3628   30.6598    4.5154 H         1 UNK         0.3038 
    121 H121       30.9714   29.3255    5.2439 H         1 UNK         0.0769 
    122 H122       32.0275   29.6766    7.4394 H         1 UNK         0.0811 
    123 H123       31.4930   31.3487    7.4823 H         1 UNK         0.0811 
    124 H124       30.3118   30.0402    7.5375 H         1 UNK         0.0811 
    125 H125       31.6512   30.3865    3.0719 H         1 UNK         0.3204 
    126 H126       34.1699   31.8944    3.0929 H         1 UNK         0.0748 
    127 H127       33.9642   31.7343    0.6304 H         1 UNK         0.0771 
    128 H128       32.6159   30.6172    0.7863 H         1 UNK         0.0771 
    129 H129       32.4576   32.2887    1.3391 H         1 UNK         0.0771 
    130 H130       34.8121   29.9512    4.6305 H         1 UNK         0.2980 
    131 H131       35.7870   27.5748    3.2374 H         1 UNK         0.0545 
    132 H132       38.9229   30.0392    3.5155 H         1 UNK         0.3459 
    133 H133       37.2729   30.6101    3.5699 H         1 UNK         0.3459 
    134 H134       36.3191   26.7295    5.5082 H         1 UNK         0.0616 
    135 H135       35.9654   28.2936    6.1986 H         1 UNK         0.0616 
    136 H136       34.5528   24.8439    5.4730 H         1 UNK         0.0634 
    137 H137       34.5044   25.5486    3.8711 H         1 UNK         0.0634 
@<TRIPOS>BOND
     1    1    2 1    
     2    1   72 1    
     3    1   73 1    
     4    1   74 1    
     5    2    3 2    
     6    2    4 am   BACKBONE|DICT|INTERRES
     7    4    5 1    
     8    4   75 1    
     9    5    6 1    
    10    5   35 1    
    11    5   76 1    
    12    6    7 1    
    13    6   77 1    
    14    6   78 1    
    15    7    8 1    
    16    8    9 1    
    17    8   79 1    
    18    8   80 1    
    19    9   10 ar   
    20    9   14 ar   
    21   10   11 ar   
    22   10   81 1    
    23   11   12 ar   
    24   11   71 1    
    25   12   13 ar   
    26   12   82 1    
    27   13   14 ar   
    28   13   15 1    
    29   14   83 1    
    30   15   16 1    
    31   15   84 1    
    32   15   85 1    
    33   16   17 1    
    34   17   18 1    
    35   17   86 1    
    36   17   87 1    
    37   18   19 1    
    38   18   37 1    
    39   18   88 1    
    40   19   20 am   BACKBONE|DICT|INTERRES
    41   19   89 1    
    42   20   21 2    
    43   20   22 1    
    44   22   23 1    
    45   22   24 1    
    46   22   90 1    
    47   23   91 1    
    48   23   92 1    
    49   23   93 1    
    50   24   25 am   BACKBONE|DICT|INTERRES
    51   24   94 1    
    52   25   26 2    
    53   25   27 1    
    54   27   28 1    
    55   27   29 1    
    56   27   95 1    
    57   28   96 1    
    58   28   97 1    
    59   28   98 1    
    60   29   30 am   BACKBONE|DICT|INTERRES
    61   29   99 1    
    62   30   31 2    
    63   30   32 1    
    64   32   33 1    
    65   32   34 1    
    66   32  100 1    
    67   33  101 1    
    68   33  102 1    
    69   33  103 1    
    70   34   35 am   BACKBONE|DICT|INTERRES
    71   34  104 1    
    72   35   36 2    
    73   37   38 2    
    74   37   39 am   BACKBONE|DICT|INTERRES
    75   39   40 1    
    76   39  105 1    
    77   40   41 1    
    78   40   42 1    
    79   40  106 1    
    80   41  107 1    
    81   41  108 1    
    82   41  109 1    
    83   42   43 2    
    84   42   44 am   BACKBONE|DICT|INTERRES
    85   44   45 1    
    86   44  110 1    
    87   45   46 1    
    88   45   47 1    
    89   45  111 1    
    90   46  112 1    
    91   46  113 1    
    92   46  114 1    
    93   47   48 2    
    94   47   49 am   BACKBONE|DICT|INTERRES
    95   49   50 1    
    96   49  115 1    
    97   50   51 1    
    98   50   52 1    
    99   50  116 1    
   100   51  117 1    
   101   51  118 1    
   102   51  119 1    
   103   52   53 2    
   104   52   54 am   BACKBONE|DICT|INTERRES
   105   54   55 1    
   106   54  120 1    
   107   55   56 1    
   108   55   57 1    
   109   55  121 1    
   110   56  122 1    
   111   56  123 1    
   112   56  124 1    
   113   57   58 2    
   114   57   59 am   BACKBONE|DICT|INTERRES
   115   59   60 1    
   116   59  125 1    
   117   60   61 1    
   118   60   62 1    
   119   60  126 1    
   120   61  127 1    
   121   61  128 1    
   122   61  129 1    
   123   62   63 2    
   124   62   64 am   BACKBONE|DICT|INTERRES
   125   64   65 1    
   126   64  130 1    
   127   65   66 1    
   128   65   69 1    
   129   65  131 1    
   130   66   67 am   BACKBONE|DICT|INTERRES
   131   66   68 2    
   132   67  132 1    
   133   67  133 1    
   134   69   70 1    
   135   69  134 1    
   136   69  135 1    
   137   70   71 1    
   138   71  136 1    
   139   71  137 1    
@<TRIPOS>SUBSTRUCTURE
     1 UNK         1 GROUP             0       ****    0 ROOT    
