@<TRIPOS>MOLECULE
3R136
137   139    1
SMALL
USER_CHARGES


@<TRIPOS>ATOM
      1 CA         26.6980   21.0127    0.1908 C.3       0 UNK        -0.1979 
      2 C          27.9170   21.8855   -0.0672 C.2       0 UNK         0.4864 
      3 O          29.0122   21.5542    0.3860 O.2       0 UNK        -0.5359 
      4 N          27.7344   22.9946   -0.7902 N.am      1 UNK        -0.4318 
      5 CA         28.7720   23.9497   -1.1742 C.3       1 UNK         0.0824 
      6 C6         29.1946   24.8726    0.0045 C.3       12 UNK        -0.0944 
      7 S7         30.9346   25.4026   -0.1019 S.3       12 UNK        -0.2672 
      8 C8         31.8032   24.0076    0.6827 C.3       12 UNK         0.0333 
      9 C9         31.7649   24.0639    2.2046 C.ar      12 UNK        -0.0807 
     10 C10        32.7322   24.7934    2.9058 C.ar      12 UNK        -0.0894 
     11 C11        32.7578   24.7762    4.3044 C.ar      12 UNK        -0.0804 
     12 C12        31.7935   24.0419    4.9990 C.ar      12 UNK        -0.0824 
     13 C13        30.8092   23.3273    4.3121 C.ar      12 UNK        -0.0762 
     14 C14        30.8048   23.3347    2.9145 C.ar      12 UNK        -0.0782 
     15 C15        29.7803   22.5218    5.0908 C.3       12 UNK         0.0230 
     16 S16        28.6568   23.6022    6.0311 S.3       12 UNK        -0.2608 
     17 C17        27.4345   24.0858    4.7642 C.3       12 UNK        -0.0989 
     18 CA         27.7849   25.3611    3.9546 C.3       5 UNK         0.0716 
     19 N          26.7430   25.6286    2.9593 N.am      5 UNK        -0.4135 
     20 C          26.7337   26.6262    2.0671 C.2       4 UNK         0.5031 
     21 O          27.6305   27.4715    1.9492 O.2       4 UNK        -0.5229 
     22 CA         25.5185   26.6740    1.1334 C.3       4 UNK         0.0329 
     23 CB         24.2577   27.1828    1.8604 C.3       4 UNK        -0.2001 
     24 N          25.8569   27.5319    0.0040 N.am      4 UNK        -0.4303 
     25 C          25.2269   27.5785   -1.1751 C.2       3 UNK         0.5044 
     26 O          24.2017   26.9500   -1.4382 O.2       3 UNK        -0.5152 
     27 CA         25.9029   28.4154   -2.2657 C.3       3 UNK         0.0319 
     28 CB         26.1997   29.8572   -1.8107 C.3       3 UNK        -0.2001 
     29 N          27.1388   27.7326   -2.6398 N.am      3 UNK        -0.4354 
     30 C          27.5333   27.4594   -3.8887 C.2       2 UNK         0.4964 
     31 O          26.9688   27.8862   -4.8967 O.2       2 UNK        -0.5047 
     32 CA         28.7610   26.5380   -4.0495 C.3       2 UNK         0.0288 
     33 CB         30.0090   27.3576   -4.4160 C.3       2 UNK        -0.2113 
     34 N          29.0598   25.7009   -2.8776 N.am      2 UNK        -0.4145 
     35 C          28.2697   24.7235   -2.4095 C.2       1 UNK         0.5006 
     36 O          27.1771   24.4356   -2.9082 O.2       1 UNK        -0.5103 
     37 C          28.0289   26.5992    4.8438 C.2       5 UNK         0.5055 
     38 O          27.1040   27.0489    5.5240 O.2       5 UNK        -0.5220 
     39 N          29.2539   27.1403    4.7671 N.am      6 UNK        -0.4450 
     40 CA         29.7435   28.3605    5.4233 C.3       6 UNK         0.0367 
     41 CB         29.7174   28.2110    6.9592 C.3       6 UNK        -0.1929 
     42 C          29.0737   29.6708    4.9524 C.2       6 UNK         0.5070 
     43 O          29.3227   30.7159    5.5554 O.2       6 UNK        -0.5237 
     44 N          28.2612   29.6171    3.8872 N.am      7 UNK        -0.4739 
     45 CA         27.6360   30.7823    3.2550 C.3       7 UNK         0.0276 
     46 CB         26.1602   30.4759    2.9605 C.3       7 UNK        -0.1927 
     47 C          28.3594   31.1628    1.9560 C.2       7 UNK         0.5013 
     48 O          28.3917   32.3448    1.6133 O.2       7 UNK        -0.5193 
     49 N          28.9243   30.1644    1.2582 N.am      8 UNK        -0.4253 
     50 CA         29.6975   30.3367    0.0236 C.3       8 UNK         0.0242 
     51 CB         30.0078   28.9544   -0.5685 C.3       8 UNK        -0.2000 
     52 C          31.0019   31.1256    0.2292 C.2       8 UNK         0.4948 
     53 O          31.3831   31.9123   -0.6384 O.2       8 UNK        -0.5275 
     54 N          31.6477   30.9010    1.3762 N.am      9 UNK        -0.4246 
     55 CA         32.8642   31.5498    1.8450 C.3       9 UNK         0.0261 
     56 CB         34.0887   31.0267    1.0684 C.3       9 UNK        -0.1959 
     57 C          32.9909   31.2369    3.3390 C.2       9 UNK         0.5033 
     58 O          32.3810   30.2717    3.8100 O.2       9 UNK        -0.5390 
     59 N          33.7899   32.0378    4.0534 N.am      10 UNK        -0.4215 
     60 CA         34.1401   31.7959    5.4529 C.3       10 UNK         0.0240 
     61 CB         34.7725   33.0628    6.0530 C.3       10 UNK        -0.1982 
     62 C          35.0989   30.5995    5.5583 C.2       10 UNK         0.4970 
     63 O          36.1239   30.5851    4.8725 O.2       10 UNK        -0.4916 
     64 N          34.7482   29.6288    6.4069 N.am      11 UNK        -0.4279 
     65 CA         35.5121   28.3874    6.6115 C.3       11 UNK         0.1003 
     66 C          36.7892   28.5481    7.4877 C.2       11 UNK         0.5709 
     67 N          37.0124   29.6812    8.1436 N.am      11 UNK        -0.7358 
     68 O          37.5993   27.6275    7.5656 O.2       11 UNK        -0.4999 
     69 C69        34.6084   27.2455    7.1441 C.3       12 UNK        -0.0954 
     70 S70        33.1939   26.8856    6.0479 S.3       12 UNK        -0.2268 
     71 C71        33.8533   25.4969    5.0765 C.3       12 UNK         0.0203 
     72 H72        26.8565   20.0164   -0.2209 H         1 UNK         0.0888 
     73 H73        26.5268   20.9159    1.2626 H         1 UNK         0.0888 
     74 H74        25.7967   21.4273   -0.2606 H         1 UNK         0.0888 
     75 H75        26.8365   23.1894   -1.2180 H         1 UNK         0.3017 
     76 H76        29.6328   23.3658   -1.5074 H         1 UNK         0.0873 
     77 H77        28.5682   25.7630    0.0492 H         1 UNK         0.0745 
     78 H78        29.0514   24.3753    0.9630 H         1 UNK         0.0745 
     79 H79        31.3845   23.0659    0.3245 H         1 UNK         0.0705 
     80 H80        32.8416   24.0173    0.3482 H         1 UNK         0.0705 
     81 H81        33.4833   25.3482    2.3599 H         1 UNK         0.1334 
     82 H82        31.8114   24.0241    6.0806 H         1 UNK         0.1417 
     83 H83        30.0646   22.7574    2.3787 H         1 UNK         0.1562 
     84 H84        30.3027   21.8689    5.7915 H         1 UNK         0.0748 
     85 H85        29.2080   21.8647    4.4341 H         1 UNK         0.0748 
     86 H86        26.4793   24.2238    5.2750 H         1 UNK         0.0940 
     87 H87        27.2849   23.2442    4.0859 H         1 UNK         0.0940 
     88 H88        28.6988   25.1601    3.3936 H         1 UNK         0.0703 
     89 H89        25.9443   25.0126    2.9892 H         1 UNK         0.3081 
     90 H90        25.3398   25.6638    0.7586 H         1 UNK         0.0719 
     91 H91        24.3773   28.2001    2.2293 H         1 UNK         0.0809 
     92 H92        23.3880   27.1711    1.2034 H         1 UNK         0.0809 
     93 H93        24.0146   26.5545    2.7180 H         1 UNK         0.0809 
     94 H94        26.7007   28.0699    0.1542 H         1 UNK         0.2990 
     95 H95        25.2198   28.4564   -3.1171 H         1 UNK         0.0690 
     96 H96        26.6403   30.4392   -2.6203 H         1 UNK         0.0788 
     97 H97        26.8863   29.8951   -0.9660 H         1 UNK         0.0788 
     98 H98        25.2829   30.3653   -1.5089 H         1 UNK         0.0788 
     99 H99        27.6455   27.2892   -1.8895 H         1 UNK         0.2993 
    100 H100       28.5412   25.8666   -4.8827 H         1 UNK         0.0949 
    101 H101       30.2931   28.0420   -3.6173 H         1 UNK         0.0767 
    102 H102       30.8619   26.7113   -4.6250 H         1 UNK         0.0767 
    103 H103       29.8336   27.9573   -5.3104 H         1 UNK         0.0767 
    104 H104       29.9384   25.8727   -2.4057 H         1 UNK         0.3013 
    105 H105       29.9281   26.6888    4.1635 H         1 UNK         0.3121 
    106 H106       30.7884   28.4510    5.1248 H         1 UNK         0.0774 
    107 H107       30.2368   29.0401    7.4409 H         1 UNK         0.0815 
    108 H108       28.6993   28.1958    7.3486 H         1 UNK         0.0815 
    109 H109       30.2136   27.2936    7.2758 H         1 UNK         0.0815 
    110 H110       28.0924   28.7184    3.4476 H         1 UNK         0.2987 
    111 H111       27.6750   31.6439    3.9253 H         1 UNK         0.0949 
    112 H112       25.6404   31.3709    2.6162 H         1 UNK         0.0806 
    113 H113       26.0577   29.7246    2.1790 H         1 UNK         0.0806 
    114 H114       25.6398   30.1172    3.8488 H         1 UNK         0.0806 
    115 H115       28.8060   29.2172    1.5971 H         1 UNK         0.3010 
    116 H116       29.0831   30.8930   -0.6872 H         1 UNK         0.0829 
    117 H117       29.0998   28.3884   -0.7649 H         1 UNK         0.0813 
    118 H118       30.5492   29.0489   -1.5099 H         1 UNK         0.0813 
    119 H119       30.6292   28.3631    0.1048 H         1 UNK         0.0813 
    120 H120       31.2562   30.2573    2.0543 H         1 UNK         0.3038 
    121 H121       32.7663   32.6294    1.7133 H         1 UNK         0.0769 
    122 H122       34.1963   29.9461    1.1721 H         1 UNK         0.0811 
    123 H123       35.0104   31.4823    1.4322 H         1 UNK         0.0811 
    124 H124       34.0167   31.2545    0.0049 H         1 UNK         0.0811 
    125 H125       34.2842   32.7833    3.5844 H         1 UNK         0.3204 
    126 H126       33.2231   31.5759    6.0049 H         1 UNK         0.0748 
    127 H127       35.0208   32.9138    7.1047 H         1 UNK         0.0771 
    128 H128       35.6928   33.3405    5.5372 H         1 UNK         0.0771 
    129 H129       34.0890   33.9106    5.9999 H         1 UNK         0.0771 
    130 H130       33.8858   29.7075    6.9247 H         1 UNK         0.2980 
    131 H131       35.8766   28.0687    5.6328 H         1 UNK         0.0545 
    132 H132       37.8461   29.7716    8.7026 H         1 UNK         0.3459 
    133 H133       36.3569   30.4433    8.0862 H         1 UNK         0.3459 
    134 H134       34.2119   27.5075    8.1265 H         1 UNK         0.0616 
    135 H135       35.1843   26.3298    7.2895 H         1 UNK         0.0616 
    136 H136       34.3372   24.7806    5.7418 H         1 UNK         0.0634 
    137 H137       34.6268   25.8700    4.4036 H         1 UNK         0.0634 
@<TRIPOS>BOND
     1    1    2 1    
     2    1   72 1    
     3    1   73 1    
     4    1   74 1    
     5    2    3 2    
     6    2    4 am   BACKBONE|DICT|INTERRES
     7    4    5 1    
     8    4   75 1    
     9    5    6 1    
    10    5   35 1    
    11    5   76 1    
    12    6    7 1    
    13    6   77 1    
    14    6   78 1    
    15    7    8 1    
    16    8    9 1    
    17    8   79 1    
    18    8   80 1    
    19    9   10 ar   
    20    9   14 ar   
    21   10   11 ar   
    22   10   81 1    
    23   11   12 ar   
    24   11   71 1    
    25   12   13 ar   
    26   12   82 1    
    27   13   14 ar   
    28   13   15 1    
    29   14   83 1    
    30   15   16 1    
    31   15   84 1    
    32   15   85 1    
    33   16   17 1    
    34   17   18 1    
    35   17   86 1    
    36   17   87 1    
    37   18   19 1    
    38   18   37 1    
    39   18   88 1    
    40   19   20 am   BACKBONE|DICT|INTERRES
    41   19   89 1    
    42   20   21 2    
    43   20   22 1    
    44   22   23 1    
    45   22   24 1    
    46   22   90 1    
    47   23   91 1    
    48   23   92 1    
    49   23   93 1    
    50   24   25 am   BACKBONE|DICT|INTERRES
    51   24   94 1    
    52   25   26 2    
    53   25   27 1    
    54   27   28 1    
    55   27   29 1    
    56   27   95 1    
    57   28   96 1    
    58   28   97 1    
    59   28   98 1    
    60   29   30 am   BACKBONE|DICT|INTERRES
    61   29   99 1    
    62   30   31 2    
    63   30   32 1    
    64   32   33 1    
    65   32   34 1    
    66   32  100 1    
    67   33  101 1    
    68   33  102 1    
    69   33  103 1    
    70   34   35 am   BACKBONE|DICT|INTERRES
    71   34  104 1    
    72   35   36 2    
    73   37   38 2    
    74   37   39 am   BACKBONE|DICT|INTERRES
    75   39   40 1    
    76   39  105 1    
    77   40   41 1    
    78   40   42 1    
    79   40  106 1    
    80   41  107 1    
    81   41  108 1    
    82   41  109 1    
    83   42   43 2    
    84   42   44 am   BACKBONE|DICT|INTERRES
    85   44   45 1    
    86   44  110 1    
    87   45   46 1    
    88   45   47 1    
    89   45  111 1    
    90   46  112 1    
    91   46  113 1    
    92   46  114 1    
    93   47   48 2    
    94   47   49 am   BACKBONE|DICT|INTERRES
    95   49   50 1    
    96   49  115 1    
    97   50   51 1    
    98   50   52 1    
    99   50  116 1    
   100   51  117 1    
   101   51  118 1    
   102   51  119 1    
   103   52   53 2    
   104   52   54 am   BACKBONE|DICT|INTERRES
   105   54   55 1    
   106   54  120 1    
   107   55   56 1    
   108   55   57 1    
   109   55  121 1    
   110   56  122 1    
   111   56  123 1    
   112   56  124 1    
   113   57   58 2    
   114   57   59 am   BACKBONE|DICT|INTERRES
   115   59   60 1    
   116   59  125 1    
   117   60   61 1    
   118   60   62 1    
   119   60  126 1    
   120   61  127 1    
   121   61  128 1    
   122   61  129 1    
   123   62   63 2    
   124   62   64 am   BACKBONE|DICT|INTERRES
   125   64   65 1    
   126   64  130 1    
   127   65   66 1    
   128   65   69 1    
   129   65  131 1    
   130   66   67 am   BACKBONE|DICT|INTERRES
   131   66   68 2    
   132   67  132 1    
   133   67  133 1    
   134   69   70 1    
   135   69  134 1    
   136   69  135 1    
   137   70   71 1    
   138   71  136 1    
   139   71  137 1    
@<TRIPOS>SUBSTRUCTURE
     1 UNK         1 GROUP             0       ****    0 ROOT    
