@<TRIPOS>MOLECULE
3R136
137   139    1
SMALL
USER_CHARGES


@<TRIPOS>ATOM
      1 CA         24.3527   25.5894    3.7623 C.3       0 UNK        -0.1979 
      2 C          24.9142   24.2274    3.3799 C.2       0 UNK         0.4864 
      3 O          24.5317   23.2184    3.9747 O.2       0 UNK        -0.5359 
      4 N          25.8146   24.1983    2.3932 N.am      1 UNK        -0.4318 
      5 CA         26.4222   22.9939    1.8266 C.3       1 UNK         0.0824 
      6 C6         27.9426   23.1833    1.5911 C.3       12 UNK        -0.0944 
      7 S7         28.8787   23.2611    3.1572 S.3       12 UNK        -0.2672 
      8 C8         28.9808   25.0514    3.4702 C.3       12 UNK         0.0333 
      9 C9         30.1993   25.6919    2.8212 C.ar      12 UNK        -0.0807 
     10 C10        31.3728   25.8773    3.5574 C.ar      12 UNK        -0.0894 
     11 C11        32.4750   26.5200    2.9861 C.ar      12 UNK        -0.0804 
     12 C12        32.4005   26.9725    1.6651 C.ar      12 UNK        -0.0824 
     13 C13        31.2358   26.7854    0.9124 C.ar      12 UNK        -0.0762 
     14 C14        30.1428   26.1403    1.4994 C.ar      12 UNK        -0.0782 
     15 C15        31.1793   27.2587   -0.5370 C.3       12 UNK         0.0230 
     16 S16        29.8485   28.4693   -0.8460 S.3       12 UNK        -0.2608 
     17 C17        28.5028   27.3943   -1.4536 C.3       12 UNK        -0.0989 
     18 CA         27.0892   27.7945   -0.9566 C.3       5 UNK         0.0716 
     19 N          26.0726   26.9991   -1.6347 N.am      5 UNK        -0.4135 
     20 C          25.5189   27.2833   -2.8171 C.2       4 UNK         0.5031 
     21 O          25.7474   28.3152   -3.4522 O.2       4 UNK        -0.5229 
     22 CA         24.5826   26.2012   -3.3921 C.3       4 UNK         0.0329 
     23 CB         24.0556   26.5412   -4.8030 C.3       4 UNK        -0.2001 
     24 N          25.2051   24.8687   -3.3720 N.am      4 UNK        -0.4303 
     25 C          26.3560   24.4971   -3.9628 C.2       3 UNK         0.5044 
     26 O          27.0246   25.2361   -4.6865 O.2       3 UNK        -0.5152 
     27 CA         26.8633   23.0683   -3.6881 C.3       3 UNK         0.0319 
     28 CB         28.3850   23.0324   -3.4457 C.3       3 UNK        -0.2001 
     29 N          26.1804   22.4730   -2.5407 N.am      3 UNK        -0.4354 
     30 C          25.8152   21.1966   -2.3984 C.2       2 UNK         0.4964 
     31 O          26.0410   20.3260   -3.2408 O.2       2 UNK        -0.5047 
     32 CA         25.0711   20.8426   -1.0895 C.3       2 UNK         0.0288 
     33 CB         24.8844   19.3238   -0.9086 C.3       2 UNK        -0.2113 
     34 N          25.7025   21.3872    0.1217 N.am      2 UNK        -0.4145 
     35 C          25.7074   22.6729    0.5026 C.2       1 UNK         0.5006 
     36 O          25.2165   23.5837   -0.1749 O.2       1 UNK        -0.5103 
     37 C          26.8875   27.5846    0.5529 C.2       5 UNK         0.5055 
     38 O          26.4499   26.5051    0.9600 O.2       5 UNK        -0.5220 
     39 N          27.2155   28.6022    1.3527 N.am      6 UNK        -0.4450 
     40 CA         27.1475   28.5885    2.8118 C.3       6 UNK         0.0367 
     41 CB         26.0261   29.5326    3.2759 C.3       6 UNK        -0.1929 
     42 C          28.5031   29.0317    3.3736 C.2       6 UNK         0.5070 
     43 O          29.2327   29.7646    2.7009 O.2       6 UNK        -0.5237 
     44 N          28.8073   28.5833    4.5975 N.am      7 UNK        -0.4739 
     45 CA         30.0600   28.8779    5.2954 C.3       7 UNK         0.0276 
     46 CB         30.1860   27.9544    6.5182 C.3       7 UNK        -0.1927 
     47 C          30.1697   30.3532    5.7177 C.2       7 UNK         0.5013 
     48 O          29.1527   30.9977    5.9888 O.2       7 UNK        -0.5193 
     49 N          31.4090   30.8426    5.7989 N.am      8 UNK        -0.4253 
     50 CA         31.7782   32.2023    6.1817 C.3       8 UNK         0.0242 
     51 CB         31.5891   33.1486    4.9782 C.3       8 UNK        -0.2000 
     52 C          33.2355   32.1864    6.6611 C.2       8 UNK         0.4948 
     53 O          33.8878   31.1417    6.5949 O.2       8 UNK        -0.5275 
     54 N          33.7491   33.3496    7.0877 N.am      9 UNK        -0.4246 
     55 CA         35.1401   33.5476    7.5271 C.3       9 UNK         0.0261 
     56 CB         35.3311   35.0060    7.9735 C.3       9 UNK        -0.1959 
     57 C          36.2024   33.1633    6.4762 C.2       9 UNK         0.5033 
     58 O          37.3106   32.7744    6.8488 O.2       9 UNK        -0.5390 
     59 N          35.8276   33.2226    5.1897 N.am      10 UNK        -0.4215 
     60 CA         36.6071   32.7522    4.0415 C.3       10 UNK         0.0240 
     61 CB         35.8518   33.1039    2.7491 C.3       10 UNK        -0.1982 
     62 C          36.9452   31.2473    4.0715 C.2       10 UNK         0.4970 
     63 O          37.9053   30.8470    3.4116 O.2       10 UNK        -0.4916 
     64 N          36.1832   30.4463    4.8313 N.am      11 UNK        -0.4279 
     65 CA         36.4763   29.0288    5.0950 C.3       11 UNK         0.1003 
     66 C          37.7007   28.7988    6.0314 C.2       11 UNK         0.5709 
     67 N          38.2221   29.8088    6.7211 N.am      11 UNK        -0.7358 
     68 O          38.1937   27.6773    6.1271 O.2       11 UNK        -0.4999 
     69 C69        35.2347   28.2654    5.6280 C.3       12 UNK        -0.0954 
     70 S70        33.7799   28.3886    4.5339 S.3       12 UNK        -0.2268 
     71 C71        33.7441   26.7277    3.7977 C.3       12 UNK         0.0203 
     72 H72        24.6586   26.3662    3.0617 H         1 UNK         0.0888 
     73 H73        23.2636   25.5576    3.7729 H         1 UNK         0.0888 
     74 H74        24.6967   25.8717    4.7569 H         1 UNK         0.0888 
     75 H75        26.0236   25.0568    1.8823 H         1 UNK         0.3017 
     76 H76        26.2757   22.1478    2.5017 H         1 UNK         0.0873 
     77 H77        28.3508   22.3433    1.0256 H         1 UNK         0.0745 
     78 H78        28.1351   24.0695    0.9870 H         1 UNK         0.0745 
     79 H79        28.0726   25.5414    3.1230 H         1 UNK         0.0705 
     80 H80        29.0112   25.2112    4.5488 H         1 UNK         0.0705 
     81 H81        31.4240   25.5337    4.5814 H         1 UNK         0.1334 
     82 H82        33.2539   27.4712    1.2261 H         1 UNK         0.1417 
     83 H83        29.2379   25.9994    0.9328 H         1 UNK         0.1562 
     84 H84        32.1236   27.7295   -0.8144 H         1 UNK         0.0748 
     85 H85        31.0721   26.3983   -1.1988 H         1 UNK         0.0748 
     86 H86        28.7065   26.3487   -1.2190 H         1 UNK         0.0940 
     87 H87        28.5306   27.4505   -2.5434 H         1 UNK         0.0940 
     88 H88        26.9145   28.8505   -1.1752 H         1 UNK         0.0703 
     89 H89        25.7911   26.1681   -1.1277 H         1 UNK         0.3081 
     90 H90        23.7222   26.1532   -2.7227 H         1 UNK         0.0719 
     91 H91        24.8651   26.6432   -5.5265 H         1 UNK         0.0809 
     92 H92        23.3750   25.7722   -5.1681 H         1 UNK         0.0809 
     93 H93        23.5061   27.4833   -4.7970 H         1 UNK         0.0809 
     94 H94        24.7233   24.1782   -2.8134 H         1 UNK         0.2990 
     95 H95        26.6383   22.4864   -4.5842 H         1 UNK         0.0690 
     96 H96        28.7356   22.0138   -3.2786 H         1 UNK         0.0788 
     97 H97        28.6666   23.6305   -2.5782 H         1 UNK         0.0788 
     98 H98        28.9318   23.4225   -4.3051 H         1 UNK         0.0788 
     99 H99        25.9521   23.0993   -1.7711 H         1 UNK         0.2993 
    100 H100       24.0765   21.2861   -1.1748 H         1 UNK         0.0949 
    101 H101       24.3482   18.8897   -1.7538 H         1 UNK         0.0767 
    102 H102       25.8416   18.8070   -0.8284 H         1 UNK         0.0767 
    103 H103       24.3040   19.0984   -0.0136 H         1 UNK         0.0767 
    104 H104       26.1677   20.7125    0.7124 H         1 UNK         0.3013 
    105 H105       27.6928   29.4041    0.9600 H         1 UNK         0.3121 
    106 H106       26.9351   27.5831    3.1783 H         1 UNK         0.0774 
    107 H107       25.9480   29.5440    4.3638 H         1 UNK         0.0815 
    108 H108       26.2032   30.5587    2.9510 H         1 UNK         0.0815 
    109 H109       25.0583   29.2190    2.8845 H         1 UNK         0.0815 
    110 H110       28.1262   28.0395    5.1061 H         1 UNK         0.2987 
    111 H111       30.8747   28.6570    4.6032 H         1 UNK         0.0949 
    112 H112       29.3988   28.1435    7.2491 H         1 UNK         0.0806 
    113 H113       30.1350   26.9040    6.2331 H         1 UNK         0.0806 
    114 H114       31.1422   28.1037    7.0219 H         1 UNK         0.0806 
    115 H115       32.2066   30.2342    5.6455 H         1 UNK         0.3010 
    116 H116       31.1502   32.5263    7.0143 H         1 UNK         0.0829 
    117 H117       30.5577   33.1393    4.6248 H         1 UNK         0.0813 
    118 H118       31.8242   34.1813    5.2372 H         1 UNK         0.0813 
    119 H119       32.2274   32.8648    4.1403 H         1 UNK         0.0813 
    120 H120       33.1494   34.1622    7.1158 H         1 UNK         0.3038 
    121 H121       35.3006   32.9013    8.3925 H         1 UNK         0.0769 
    122 H122       35.1503   35.7062    7.1569 H         1 UNK         0.0811 
    123 H123       36.3490   35.1754    8.3281 H         1 UNK         0.0811 
    124 H124       34.6594   35.2627    8.7929 H         1 UNK         0.0811 
    125 H125       34.8980   33.5614    4.9918 H         1 UNK         0.3204 
    126 H126       37.5547   33.2948    4.0458 H         1 UNK         0.0748 
    127 H127       36.4194   32.7980    1.8689 H         1 UNK         0.0771 
    128 H128       34.8824   32.6058    2.7003 H         1 UNK         0.0771 
    129 H129       35.6841   34.1779    2.6652 H         1 UNK         0.0771 
    130 H130       35.4057   30.8335    5.3566 H         1 UNK         0.2980 
    131 H131       36.7445   28.5738    4.1397 H         1 UNK         0.0545 
    132 H132       37.8345   30.7427    6.6582 H         1 UNK         0.3459 
    133 H133       39.0163   29.6367    7.3167 H         1 UNK         0.3459 
    134 H134       34.9474   28.6522    6.6072 H         1 UNK         0.0616 
    135 H135       35.4720   27.2115    5.7835 H         1 UNK         0.0616 
    136 H136       33.8089   25.9771    4.5870 H         1 UNK         0.0634 
    137 H137       34.6230   26.5929    3.1655 H         1 UNK         0.0634 
@<TRIPOS>BOND
     1    1    2 1    
     2    1   72 1    
     3    1   73 1    
     4    1   74 1    
     5    2    3 2    
     6    2    4 am   BACKBONE|DICT|INTERRES
     7    4    5 1    
     8    4   75 1    
     9    5    6 1    
    10    5   35 1    
    11    5   76 1    
    12    6    7 1    
    13    6   77 1    
    14    6   78 1    
    15    7    8 1    
    16    8    9 1    
    17    8   79 1    
    18    8   80 1    
    19    9   10 ar   
    20    9   14 ar   
    21   10   11 ar   
    22   10   81 1    
    23   11   12 ar   
    24   11   71 1    
    25   12   13 ar   
    26   12   82 1    
    27   13   14 ar   
    28   13   15 1    
    29   14   83 1    
    30   15   16 1    
    31   15   84 1    
    32   15   85 1    
    33   16   17 1    
    34   17   18 1    
    35   17   86 1    
    36   17   87 1    
    37   18   19 1    
    38   18   37 1    
    39   18   88 1    
    40   19   20 am   BACKBONE|DICT|INTERRES
    41   19   89 1    
    42   20   21 2    
    43   20   22 1    
    44   22   23 1    
    45   22   24 1    
    46   22   90 1    
    47   23   91 1    
    48   23   92 1    
    49   23   93 1    
    50   24   25 am   BACKBONE|DICT|INTERRES
    51   24   94 1    
    52   25   26 2    
    53   25   27 1    
    54   27   28 1    
    55   27   29 1    
    56   27   95 1    
    57   28   96 1    
    58   28   97 1    
    59   28   98 1    
    60   29   30 am   BACKBONE|DICT|INTERRES
    61   29   99 1    
    62   30   31 2    
    63   30   32 1    
    64   32   33 1    
    65   32   34 1    
    66   32  100 1    
    67   33  101 1    
    68   33  102 1    
    69   33  103 1    
    70   34   35 am   BACKBONE|DICT|INTERRES
    71   34  104 1    
    72   35   36 2    
    73   37   38 2    
    74   37   39 am   BACKBONE|DICT|INTERRES
    75   39   40 1    
    76   39  105 1    
    77   40   41 1    
    78   40   42 1    
    79   40  106 1    
    80   41  107 1    
    81   41  108 1    
    82   41  109 1    
    83   42   43 2    
    84   42   44 am   BACKBONE|DICT|INTERRES
    85   44   45 1    
    86   44  110 1    
    87   45   46 1    
    88   45   47 1    
    89   45  111 1    
    90   46  112 1    
    91   46  113 1    
    92   46  114 1    
    93   47   48 2    
    94   47   49 am   BACKBONE|DICT|INTERRES
    95   49   50 1    
    96   49  115 1    
    97   50   51 1    
    98   50   52 1    
    99   50  116 1    
   100   51  117 1    
   101   51  118 1    
   102   51  119 1    
   103   52   53 2    
   104   52   54 am   BACKBONE|DICT|INTERRES
   105   54   55 1    
   106   54  120 1    
   107   55   56 1    
   108   55   57 1    
   109   55  121 1    
   110   56  122 1    
   111   56  123 1    
   112   56  124 1    
   113   57   58 2    
   114   57   59 am   BACKBONE|DICT|INTERRES
   115   59   60 1    
   116   59  125 1    
   117   60   61 1    
   118   60   62 1    
   119   60  126 1    
   120   61  127 1    
   121   61  128 1    
   122   61  129 1    
   123   62   63 2    
   124   62   64 am   BACKBONE|DICT|INTERRES
   125   64   65 1    
   126   64  130 1    
   127   65   66 1    
   128   65   69 1    
   129   65  131 1    
   130   66   67 am   BACKBONE|DICT|INTERRES
   131   66   68 2    
   132   67  132 1    
   133   67  133 1    
   134   69   70 1    
   135   69  134 1    
   136   69  135 1    
   137   70   71 1    
   138   71  136 1    
   139   71  137 1    
@<TRIPOS>SUBSTRUCTURE
     1 UNK         1 GROUP             0       ****    0 ROOT    
