@<TRIPOS>MOLECULE
3R136
137   139    1
SMALL
USER_CHARGES


@<TRIPOS>ATOM
      1 CA         28.7317   25.0697    3.2696 C.3       0 UNK        -0.1979 
      2 C          27.9947   23.8478    2.7513 C.2       0 UNK         0.4864 
      3 O          26.7643   23.8490    2.7079 O.2       0 UNK        -0.5359 
      4 N          28.7370   22.8045    2.3579 N.am      1 UNK        -0.4318 
      5 CA         28.2182   21.4728    2.0127 C.3       1 UNK         0.0824 
      6 C6         29.3521   20.4482    1.7645 C.3       12 UNK        -0.0944 
      7 S7         30.5097   20.3250    3.1710 S.3       12 UNK        -0.2672 
      8 C8         32.0796   20.8640    2.4220 C.3       12 UNK         0.0333 
      9 C9         32.1148   22.3643    2.1630 C.ar      12 UNK        -0.0807 
     10 C10        32.4358   23.2473    3.1998 C.ar      12 UNK        -0.0894 
     11 C11        32.5210   24.6252    2.9718 C.ar      12 UNK        -0.0804 
     12 C12        32.2869   25.1053    1.6768 C.ar      12 UNK        -0.0824 
     13 C13        31.9353   24.2413    0.6371 C.ar      12 UNK        -0.0762 
     14 C14        31.8586   22.8685    0.8840 C.ar      12 UNK        -0.0782 
     15 C15        31.6545   24.7923   -0.7552 C.3       12 UNK         0.0230 
     16 S16        29.8911   25.1932   -0.9812 S.3       12 UNK        -0.2608 
     17 C17        29.7089   26.7131    0.0132 C.3       12 UNK        -0.0989 
     18 CA         29.0969   27.9136   -0.7494 C.3       5 UNK         0.0716 
     19 N          27.8151   27.5551   -1.3574 N.am      5 UNK        -0.4135 
     20 C          27.0594   28.3195   -2.1558 C.2       4 UNK         0.5031 
     21 O          27.4111   29.4161   -2.5915 O.2       4 UNK        -0.5229 
     22 CA         25.6556   27.7815   -2.5003 C.3       4 UNK         0.0329 
     23 CB         25.6150   27.2803   -3.9529 C.3       4 UNK        -0.2001 
     24 N          25.1882   26.7058   -1.6157 N.am      4 UNK        -0.4303 
     25 C          24.9994   26.7799   -0.2909 C.2       3 UNK         0.5044 
     26 O          25.1746   27.8099    0.3616 O.2       3 UNK        -0.5152 
     27 CA         24.6262   25.4751    0.4395 C.3       3 UNK         0.0319 
     28 CB         23.1180   25.1809    0.3264 C.3       3 UNK        -0.2001 
     29 N          25.4450   24.3099    0.0576 N.am      3 UNK        -0.4354 
     30 C          25.4972   23.6666   -1.1224 C.2       2 UNK         0.4964 
     31 O          24.7942   23.9697   -2.0874 O.2       2 UNK        -0.5047 
     32 CA         26.5264   22.5333   -1.2955 C.3       2 UNK         0.0288 
     33 CB         27.3940   22.7693   -2.5453 C.3       2 UNK        -0.2113 
     34 N          27.4043   22.3751   -0.1322 N.am      2 UNK        -0.4145 
     35 C          27.2222   21.4632    0.8336 C.2       1 UNK         0.5006 
     36 O          26.3067   20.6382    0.8306 O.2       1 UNK        -0.5103 
     37 C          29.0044   29.1107    0.2271 C.2       5 UNK         0.5055 
     38 O          30.0407   29.7092    0.5152 O.2       5 UNK        -0.5220 
     39 N          27.8008   29.4014    0.7505 N.am      6 UNK        -0.4450 
     40 CA         27.5206   30.3014    1.8747 C.3       6 UNK         0.0367 
     41 CB         27.9617   31.7558    1.5917 C.3       6 UNK        -0.1929 
     42 C          28.0532   29.6985    3.1896 C.2       6 UNK         0.5070 
     43 O          27.9022   28.4919    3.3864 O.2       6 UNK        -0.5237 
     44 N          28.6219   30.5143    4.0837 N.am      7 UNK        -0.4739 
     45 CA         29.1075   30.0907    5.3969 C.3       7 UNK         0.0276 
     46 CB         27.9170   29.9476    6.3691 C.3       7 UNK        -0.1927 
     47 C          30.1377   31.0945    5.9287 C.2       7 UNK         0.5013 
     48 O          30.3368   32.1531    5.3240 O.2       7 UNK        -0.5193 
     49 N          30.7519   30.7448    7.0686 N.am      8 UNK        -0.4253 
     50 CA         31.7282   31.5342    7.8269 C.3       8 UNK         0.0242 
     51 CB         31.0417   32.7552    8.4833 C.3       8 UNK        -0.2000 
     52 C          32.9595   31.8784    6.9703 C.2       8 UNK         0.4948 
     53 O          33.5805   30.9640    6.4251 O.2       8 UNK        -0.5275 
     54 N          33.2756   33.1731    6.8306 N.am      9 UNK        -0.4246 
     55 CA         34.4126   33.7098    6.0728 C.3       9 UNK         0.0261 
     56 CB         34.4365   35.2395    6.2291 C.3       9 UNK        -0.1959 
     57 C          34.4572   33.3206    4.5810 C.2       9 UNK         0.5033 
     58 O          35.5144   33.4597    3.9640 O.2       9 UNK        -0.5390 
     59 N          33.3373   32.8324    4.0279 N.am      10 UNK        -0.4215 
     60 CA         33.2492   32.2978    2.6701 C.3       10 UNK         0.0240 
     61 CB         31.7727   32.1106    2.2933 C.3       10 UNK        -0.1982 
     62 C          34.0220   30.9805    2.4655 C.2       10 UNK         0.4970 
     63 O          34.4129   30.7102    1.3286 O.2       10 UNK        -0.4916 
     64 N          34.2334   30.1890    3.5293 N.am      11 UNK        -0.4279 
     65 CA         34.9290   28.8926    3.4461 C.3       11 UNK         0.1003 
     66 C          35.6899   28.4473    4.7260 C.2       11 UNK         0.5709 
     67 N          35.5538   29.1082    5.8677 N.am      11 UNK        -0.7358 
     68 O          36.4559   27.4876    4.6741 O.2       11 UNK        -0.4999 
     69 C69        34.0318   27.7731    2.8501 C.3       12 UNK        -0.0954 
     70 S70        32.5903   27.3335    3.8869 S.3       12 UNK        -0.2268 
     71 C71        32.8712   25.5434    4.1497 C.3       12 UNK         0.0203 
     72 H72        29.7324   25.1466    2.8497 H         1 UNK         0.0888 
     73 H73        28.1832   25.9729    3.0097 H         1 UNK         0.0888 
     74 H74        28.8164   25.0270    4.3550 H         1 UNK         0.0888 
     75 H75        29.7453   22.8670    2.4143 H         1 UNK         0.3017 
     76 H76        27.6555   21.1330    2.8850 H         1 UNK         0.0873 
     77 H77        28.9317   19.4532    1.6044 H         1 UNK         0.0745 
     78 H78        29.8983   20.6898    0.8517 H         1 UNK         0.0745 
     79 H79        32.2565   20.3067    1.5006 H         1 UNK         0.0705 
     80 H80        32.8955   20.5956    3.0948 H         1 UNK         0.0705 
     81 H81        32.6280   22.8563    4.1901 H         1 UNK         0.1334 
     82 H82        32.3685   26.1583    1.4657 H         1 UNK         0.1417 
     83 H83        31.6100   22.1941    0.0757 H         1 UNK         0.1562 
     84 H84        31.9441   24.0573   -1.5077 H         1 UNK         0.0748 
     85 H85        32.2626   25.6773   -0.9498 H         1 UNK         0.0748 
     86 H86        30.6818   27.0059    0.4049 H         1 UNK         0.0940 
     87 H87        29.0968   26.4663    0.8803 H         1 UNK         0.0940 
     88 H88        29.7748   28.1999   -1.5561 H         1 UNK         0.0703 
     89 H89        27.4482   26.6533   -1.0952 H         1 UNK         0.3081 
     90 H90        24.9579   28.6154   -2.4011 H         1 UNK         0.0719 
     91 H91        26.2754   26.4250   -4.1022 H         1 UNK         0.0809 
     92 H92        24.6073   26.9800   -4.2410 H         1 UNK         0.0809 
     93 H93        25.9292   28.0616   -4.6466 H         1 UNK         0.0809 
     94 H94        25.0156   25.7993   -2.0459 H         1 UNK         0.2990 
     95 H95        24.8429   25.6421    1.4961 H         1 UNK         0.0690 
     96 H96        22.8448   24.2936    0.8975 H         1 UNK         0.0788 
     97 H97        22.8037   25.0251   -0.7059 H         1 UNK         0.0788 
     98 H98        22.5312   26.0123    0.7193 H         1 UNK         0.0788 
     99 H99        26.0472   23.9748    0.8040 H         1 UNK         0.2993 
    100 H100       25.9569   21.6158   -1.4588 H         1 UNK         0.0949 
    101 H101       27.8980   23.7348   -2.5146 H         1 UNK         0.0767 
    102 H102       28.1539   21.9955   -2.6555 H         1 UNK         0.0767 
    103 H103       26.7863   22.7531   -3.4511 H         1 UNK         0.0767 
    104 H104       28.1785   23.0200   -0.0515 H         1 UNK         0.3013 
    105 H105       27.0152   28.8181    0.4810 H         1 UNK         0.3121 
    106 H106       26.4344   30.3101    1.9763 H         1 UNK         0.0774 
    107 H107       27.5828   32.4377    2.3537 H         1 UNK         0.0815 
    108 H108       29.0450   31.8622    1.5649 H         1 UNK         0.0815 
    109 H109       27.5731   32.1023    0.6341 H         1 UNK         0.0815 
    110 H110       28.7856   31.4891    3.8645 H         1 UNK         0.2987 
    111 H111       29.6137   29.1278    5.2929 H         1 UNK         0.0949 
    112 H112       27.3935   30.8952    6.5019 H         1 UNK         0.0806 
    113 H113       27.1934   29.2154    6.0104 H         1 UNK         0.0806 
    114 H114       28.2405   29.6125    7.3550 H         1 UNK         0.0806 
    115 H115       30.5446   29.8351    7.4566 H         1 UNK         0.3010 
    116 H116       32.0930   30.8902    8.6285 H         1 UNK         0.0829 
    117 H117       30.2086   32.4396    9.1117 H         1 UNK         0.0813 
    118 H118       31.7318   33.3007    9.1285 H         1 UNK         0.0813 
    119 H119       30.6450   33.4546    7.7461 H         1 UNK         0.0813 
    120 H120       32.6858   33.8511    7.2911 H         1 UNK         0.3038 
    121 H121       35.3193   33.3061    6.5280 H         1 UNK         0.0769 
    122 H122       33.5371   35.7004    5.8186 H         1 UNK         0.0811 
    123 H123       35.2912   35.6736    5.7080 H         1 UNK         0.0811 
    124 H124       34.5181   35.5322    7.2761 H         1 UNK         0.0811 
    125 H125       32.5085   32.7495    4.6043 H         1 UNK         0.3204 
    126 H126       33.6795   33.0394    1.9937 H         1 UNK         0.0748 
    127 H127       31.6746   31.8254    1.2449 H         1 UNK         0.0771 
    128 H128       31.3021   31.3244    2.8850 H         1 UNK         0.0771 
    129 H129       31.2023   33.0287    2.4347 H         1 UNK         0.0771 
    130 H130       33.9020   30.4681    4.4455 H         1 UNK         0.2980 
    131 H131       35.7437   29.0371    2.7336 H         1 UNK         0.0545 
    132 H132       34.8745   29.8564    5.9872 H         1 UNK         0.3459 
    133 H133       36.0796   28.7941    6.6669 H         1 UNK         0.3459 
    134 H134       34.6294   26.8815    2.6526 H         1 UNK         0.0616 
    135 H135       33.6556   28.0861    1.8755 H         1 UNK         0.0616 
    136 H136       32.2700   25.2459    5.0101 H         1 UNK         0.0634 
    137 H137       33.9121   25.3824    4.4339 H         1 UNK         0.0634 
@<TRIPOS>BOND
     1    1    2 1    
     2    1   72 1    
     3    1   73 1    
     4    1   74 1    
     5    2    3 2    
     6    2    4 am   BACKBONE|DICT|INTERRES
     7    4    5 1    
     8    4   75 1    
     9    5    6 1    
    10    5   35 1    
    11    5   76 1    
    12    6    7 1    
    13    6   77 1    
    14    6   78 1    
    15    7    8 1    
    16    8    9 1    
    17    8   79 1    
    18    8   80 1    
    19    9   10 ar   
    20    9   14 ar   
    21   10   11 ar   
    22   10   81 1    
    23   11   12 ar   
    24   11   71 1    
    25   12   13 ar   
    26   12   82 1    
    27   13   14 ar   
    28   13   15 1    
    29   14   83 1    
    30   15   16 1    
    31   15   84 1    
    32   15   85 1    
    33   16   17 1    
    34   17   18 1    
    35   17   86 1    
    36   17   87 1    
    37   18   19 1    
    38   18   37 1    
    39   18   88 1    
    40   19   20 am   BACKBONE|DICT|INTERRES
    41   19   89 1    
    42   20   21 2    
    43   20   22 1    
    44   22   23 1    
    45   22   24 1    
    46   22   90 1    
    47   23   91 1    
    48   23   92 1    
    49   23   93 1    
    50   24   25 am   BACKBONE|DICT|INTERRES
    51   24   94 1    
    52   25   26 2    
    53   25   27 1    
    54   27   28 1    
    55   27   29 1    
    56   27   95 1    
    57   28   96 1    
    58   28   97 1    
    59   28   98 1    
    60   29   30 am   BACKBONE|DICT|INTERRES
    61   29   99 1    
    62   30   31 2    
    63   30   32 1    
    64   32   33 1    
    65   32   34 1    
    66   32  100 1    
    67   33  101 1    
    68   33  102 1    
    69   33  103 1    
    70   34   35 am   BACKBONE|DICT|INTERRES
    71   34  104 1    
    72   35   36 2    
    73   37   38 2    
    74   37   39 am   BACKBONE|DICT|INTERRES
    75   39   40 1    
    76   39  105 1    
    77   40   41 1    
    78   40   42 1    
    79   40  106 1    
    80   41  107 1    
    81   41  108 1    
    82   41  109 1    
    83   42   43 2    
    84   42   44 am   BACKBONE|DICT|INTERRES
    85   44   45 1    
    86   44  110 1    
    87   45   46 1    
    88   45   47 1    
    89   45  111 1    
    90   46  112 1    
    91   46  113 1    
    92   46  114 1    
    93   47   48 2    
    94   47   49 am   BACKBONE|DICT|INTERRES
    95   49   50 1    
    96   49  115 1    
    97   50   51 1    
    98   50   52 1    
    99   50  116 1    
   100   51  117 1    
   101   51  118 1    
   102   51  119 1    
   103   52   53 2    
   104   52   54 am   BACKBONE|DICT|INTERRES
   105   54   55 1    
   106   54  120 1    
   107   55   56 1    
   108   55   57 1    
   109   55  121 1    
   110   56  122 1    
   111   56  123 1    
   112   56  124 1    
   113   57   58 2    
   114   57   59 am   BACKBONE|DICT|INTERRES
   115   59   60 1    
   116   59  125 1    
   117   60   61 1    
   118   60   62 1    
   119   60  126 1    
   120   61  127 1    
   121   61  128 1    
   122   61  129 1    
   123   62   63 2    
   124   62   64 am   BACKBONE|DICT|INTERRES
   125   64   65 1    
   126   64  130 1    
   127   65   66 1    
   128   65   69 1    
   129   65  131 1    
   130   66   67 am   BACKBONE|DICT|INTERRES
   131   66   68 2    
   132   67  132 1    
   133   67  133 1    
   134   69   70 1    
   135   69  134 1    
   136   69  135 1    
   137   70   71 1    
   138   71  136 1    
   139   71  137 1    
@<TRIPOS>SUBSTRUCTURE
     1 UNK         1 GROUP             0       ****    0 ROOT    
