@<TRIPOS>MOLECULE
3R136
137   139    1
SMALL
USER_CHARGES


@<TRIPOS>ATOM
      1 CA         26.7672   19.3859    3.9395 C.3       0 UNK        -0.1979 
      2 C          27.1338   19.6461    2.4857 C.2       0 UNK         0.4864 
      3 O          26.4055   19.2199    1.5886 O.2       0 UNK        -0.5359 
      4 N          28.2599   20.3339    2.2518 N.am      1 UNK        -0.4318 
      5 CA         28.7567   20.7283    0.9293 C.3       1 UNK         0.0824 
      6 C6         30.2396   21.1701    1.0130 C.3       12 UNK        -0.0944 
      7 S7         31.0631   21.2475   -0.6089 S.3       12 UNK        -0.2672 
      8 C8         32.7988   21.4349   -0.0924 C.3       12 UNK         0.0333 
      9 C9         33.0707   22.8091    0.5046 C.ar      12 UNK        -0.0807 
     10 C10        33.0582   22.9983    1.8920 C.ar      12 UNK        -0.0894 
     11 C11        33.3297   24.2575    2.4370 C.ar      12 UNK        -0.0804 
     12 C12        33.6408   25.3201    1.5852 C.ar      12 UNK        -0.0824 
     13 C13        33.6173   25.1545    0.1989 C.ar      12 UNK        -0.0762 
     14 C14        33.3403   23.8935   -0.3366 C.ar      12 UNK        -0.0782 
     15 C15        33.8824   26.3397   -0.7175 C.3       12 UNK         0.0230 
     16 S16        32.3345   27.1020   -1.3070 S.3       12 UNK        -0.2608 
     17 C17        31.7008   27.9318    0.1940 C.3       12 UNK        -0.0989 
     18 CA         30.1913   27.6652    0.4387 C.3       5 UNK         0.0716 
     19 N          29.8119   27.7024    1.8573 N.am      5 UNK        -0.4135 
     20 C          29.8110   28.7747    2.6663 C.2       4 UNK         0.5031 
     21 O          30.2416   29.8857    2.3461 O.2       4 UNK        -0.5229 
     22 CA         29.1879   28.5765    4.0654 C.3       4 UNK         0.0329 
     23 CB         28.8129   29.9099    4.7440 C.3       4 UNK        -0.2001 
     24 N          28.0358   27.6657    4.0650 N.am      4 UNK        -0.4303 
     25 C          26.9126   27.7867    3.3431 C.2       3 UNK         0.5044 
     26 O          26.6731   28.7251    2.5826 O.2       3 UNK        -0.5152 
     27 CA         25.9214   26.6148    3.4244 C.3       3 UNK         0.0319 
     28 CB         24.4748   27.1213    3.5578 C.3       3 UNK        -0.2001 
     29 N          26.0132   25.7273    2.2588 N.am      3 UNK        -0.4354 
     30 C          27.1134   25.0784    1.8542 C.2       2 UNK         0.4964 
     31 O          28.2258   25.2038    2.3750 O.2       2 UNK        -0.5047 
     32 CA         26.9610   24.1263    0.6660 C.3       2 UNK         0.0288 
     33 CB         27.3754   24.8126   -0.6502 C.3       2 UNK        -0.2113 
     34 N          27.8107   22.9780    0.9558 N.am      2 UNK        -0.4145 
     35 C          27.8450   21.8086    0.3085 C.2       1 UNK         0.5006 
     36 O          27.1755   21.5532   -0.6944 O.2       1 UNK        -0.5103 
     37 C          29.2529   28.5443   -0.4218 C.2       5 UNK         0.5055 
     38 O          29.7181   29.3365   -1.2418 O.2       5 UNK        -0.5220 
     39 N          27.9388   28.3895   -0.1957 N.am      6 UNK        -0.4450 
     40 CA         26.8339   29.1233   -0.8242 C.3       6 UNK         0.0367 
     41 CB         26.7658   28.8477   -2.3419 C.3       6 UNK        -0.1929 
     42 C          26.8693   30.6223   -0.4724 C.2       6 UNK         0.5070 
     43 O          26.8827   31.4738   -1.3630 O.2       6 UNK        -0.5237 
     44 N          26.8802   30.8992    0.8393 N.am      7 UNK        -0.4739 
     45 CA         26.8761   32.2203    1.4779 C.3       7 UNK         0.0276 
     46 CB         25.5553   32.9657    1.1887 C.3       7 UNK        -0.1927 
     47 C          28.1257   33.0685    1.1669 C.2       7 UNK         0.5013 
     48 O          28.0308   34.2952    1.0975 O.2       7 UNK        -0.5193 
     49 N          29.2845   32.4106    1.0232 N.am      8 UNK        -0.4253 
     50 CA         30.5870   33.0561    0.8251 C.3       8 UNK         0.0242 
     51 CB         31.4758   32.1321   -0.0227 C.3       8 UNK        -0.2000 
     52 C          31.2872   33.4036    2.1533 C.2       8 UNK         0.4948 
     53 O          32.3798   33.9706    2.1175 O.2       8 UNK        -0.5275 
     54 N          30.6681   33.0396    3.2884 N.am      9 UNK        -0.4246 
     55 CA         31.1708   33.1548    4.6644 C.3       9 UNK         0.0261 
     56 CB         31.4161   34.6281    5.0574 C.3       9 UNK        -0.1959 
     57 C          32.3855   32.2439    4.9389 C.2       9 UNK         0.5033 
     58 O          33.2157   32.5685    5.7909 O.2       9 UNK        -0.5390 
     59 N          32.4612   31.1153    4.2212 N.am      10 UNK        -0.4215 
     60 CA         33.4748   30.0761    4.3937 C.3       10 UNK         0.0240 
     61 CB         33.7190   29.4189    3.0244 C.3       10 UNK        -0.1982 
     62 C          33.0336   29.0379    5.4439 C.2       10 UNK         0.4970 
     63 O          31.9822   29.1892    6.0696 O.2       10 UNK        -0.4916 
     64 N          33.8494   27.9873    5.5956 N.am      11 UNK        -0.4279 
     65 CA         33.6215   26.8156    6.4634 C.3       11 UNK         0.1003 
     66 C          33.7712   27.0911    7.9908 C.2       11 UNK         0.5709 
     67 N          34.3008   28.2341    8.4106 N.am      11 UNK        -0.7358 
     68 O          33.4359   26.2410    8.8126 O.2       11 UNK        -0.4999 
     69 C69        32.3218   26.0146    6.1332 C.3       12 UNK        -0.0954 
     70 S70        32.0118   25.7325    4.3568 S.3       12 UNK        -0.2268 
     71 C71        33.2788   24.4915    3.9402 C.3       12 UNK         0.0203 
     72 H72        25.7955   19.8243    4.1654 H         1 UNK         0.0888 
     73 H73        26.7091   18.3138    4.1256 H         1 UNK         0.0888 
     74 H74        27.4983   19.8097    4.6279 H         1 UNK         0.0888 
     75 H75        28.8113   20.6458    3.0385 H         1 UNK         0.3017 
     76 H76        28.7034   19.8458    0.2874 H         1 UNK         0.0873 
     77 H77        30.7956   20.4541    1.6208 H         1 UNK         0.0745 
     78 H78        30.3442   22.1333    1.5153 H         1 UNK         0.0745 
     79 H79        33.4410   21.2811   -0.9610 H         1 UNK         0.0705 
     80 H80        33.0590   20.6481    0.6174 H         1 UNK         0.0705 
     81 H81        32.8313   22.1668    2.5452 H         1 UNK         0.1334 
     82 H82        33.8665   26.2883    2.0099 H         1 UNK         0.1417 
     83 H83        33.3272   23.7574   -1.4097 H         1 UNK         0.1562 
     84 H84        34.4628   26.0103   -1.5806 H         1 UNK         0.0748 
     85 H85        34.4905   27.0923   -0.2128 H         1 UNK         0.0748 
     86 H86        31.9240   28.9972    0.1449 H         1 UNK         0.0940 
     87 H87        32.2615   27.5559    1.0432 H         1 UNK         0.0940 
     88 H88        29.9944   26.6358    0.1380 H         1 UNK         0.0703 
     89 H89        29.4293   26.8353    2.2238 H         1 UNK         0.3081 
     90 H90        29.9549   28.0965    4.6738 H         1 UNK         0.0719 
     91 H91        28.3560   29.7429    5.7192 H         1 UNK         0.0809 
     92 H92        28.1158   30.4918    4.1412 H         1 UNK         0.0809 
     93 H93        29.6989   30.5197    4.9100 H         1 UNK         0.0809 
     94 H94        28.1553   26.8191    4.6049 H         1 UNK         0.2990 
     95 H95        26.1531   26.0240    4.3131 H         1 UNK         0.0690 
     96 H96        23.7770   26.2975    3.7093 H         1 UNK         0.0788 
     97 H97        24.1553   27.6739    2.6730 H         1 UNK         0.0788 
     98 H98        24.3736   27.7911    4.4129 H         1 UNK         0.0788 
     99 H99        25.1532   25.5803    1.7499 H         1 UNK         0.2993 
    100 H100       25.9245   23.7890    0.5994 H         1 UNK         0.0949 
    101 H101       28.4307   25.0843   -0.6481 H         1 UNK         0.0767 
    102 H102       27.2052   24.1629   -1.5086 H         1 UNK         0.0767 
    103 H103       26.7970   25.7214   -0.8199 H         1 UNK         0.0767 
    104 H104       28.3943   23.1116    1.7725 H         1 UNK         0.3013 
    105 H105       27.6657   27.7841    0.5649 H         1 UNK         0.3121 
    106 H106       25.9169   28.7294   -0.3826 H         1 UNK         0.0774 
    107 H107       25.8772   29.3051   -2.7785 H         1 UNK         0.0815 
    108 H108       27.6288   29.2531   -2.8706 H         1 UNK         0.0815 
    109 H109       26.7162   27.7791   -2.5502 H         1 UNK         0.0815 
    110 H110       26.8549   30.1072    1.4838 H         1 UNK         0.2987 
    111 H111       26.9086   32.0303    2.5515 H         1 UNK         0.0949 
    112 H112       25.4727   33.2518    0.1397 H         1 UNK         0.0806 
    113 H113       24.6902   32.3515    1.4387 H         1 UNK         0.0806 
    114 H114       25.4826   33.8792    1.7802 H         1 UNK         0.0806 
    115 H115       29.2972   31.4015    1.1252 H         1 UNK         0.3010 
    116 H116       30.4485   33.9889    0.2743 H         1 UNK         0.0829 
    117 H117       30.9827   31.8431   -0.9511 H         1 UNK         0.0813 
    118 H118       32.4108   32.6254   -0.2910 H         1 UNK         0.0813 
    119 H119       31.7333   31.2236    0.5198 H         1 UNK         0.0813 
    120 H120       29.7858   32.5599    3.1848 H         1 UNK         0.3038 
    121 H121       30.3720   32.7842    5.3079 H         1 UNK         0.0769 
    122 H122       32.2681   35.0545    4.5275 H         1 UNK         0.0811 
    123 H123       30.5440   35.2465    4.8454 H         1 UNK         0.0811 
    124 H124       31.6235   34.7174    6.1244 H         1 UNK         0.0811 
    125 H125       31.7141   30.9045    3.5691 H         1 UNK         0.3204 
    126 H126       34.4079   30.5300    4.7339 H         1 UNK         0.0748 
    127 H127       34.5780   28.7478    3.0434 H         1 UNK         0.0771 
    128 H128       32.8526   28.8363    2.7204 H         1 UNK         0.0771 
    129 H129       33.9116   30.1631    2.2509 H         1 UNK         0.0771 
    130 H130       34.7044   27.9611    5.0603 H         1 UNK         0.2980 
    131 H131       34.4577   26.1529    6.2416 H         1 UNK         0.0545 
    132 H132       34.5851   28.9394    7.7505 H         1 UNK         0.3459 
    133 H133       34.4038   28.3958    9.4000 H         1 UNK         0.3459 
    134 H134       32.3383   25.0432    6.6303 H         1 UNK         0.0616 
    135 H135       31.4508   26.5382    6.5307 H         1 UNK         0.0616 
    136 H136       33.0644   23.5660    4.4764 H         1 UNK         0.0634 
    137 H137       34.2578   24.8343    4.2758 H         1 UNK         0.0634 
@<TRIPOS>BOND
     1    1    2 1    
     2    1   72 1    
     3    1   73 1    
     4    1   74 1    
     5    2    3 2    
     6    2    4 am   BACKBONE|DICT|INTERRES
     7    4    5 1    
     8    4   75 1    
     9    5    6 1    
    10    5   35 1    
    11    5   76 1    
    12    6    7 1    
    13    6   77 1    
    14    6   78 1    
    15    7    8 1    
    16    8    9 1    
    17    8   79 1    
    18    8   80 1    
    19    9   10 ar   
    20    9   14 ar   
    21   10   11 ar   
    22   10   81 1    
    23   11   12 ar   
    24   11   71 1    
    25   12   13 ar   
    26   12   82 1    
    27   13   14 ar   
    28   13   15 1    
    29   14   83 1    
    30   15   16 1    
    31   15   84 1    
    32   15   85 1    
    33   16   17 1    
    34   17   18 1    
    35   17   86 1    
    36   17   87 1    
    37   18   19 1    
    38   18   37 1    
    39   18   88 1    
    40   19   20 am   BACKBONE|DICT|INTERRES
    41   19   89 1    
    42   20   21 2    
    43   20   22 1    
    44   22   23 1    
    45   22   24 1    
    46   22   90 1    
    47   23   91 1    
    48   23   92 1    
    49   23   93 1    
    50   24   25 am   BACKBONE|DICT|INTERRES
    51   24   94 1    
    52   25   26 2    
    53   25   27 1    
    54   27   28 1    
    55   27   29 1    
    56   27   95 1    
    57   28   96 1    
    58   28   97 1    
    59   28   98 1    
    60   29   30 am   BACKBONE|DICT|INTERRES
    61   29   99 1    
    62   30   31 2    
    63   30   32 1    
    64   32   33 1    
    65   32   34 1    
    66   32  100 1    
    67   33  101 1    
    68   33  102 1    
    69   33  103 1    
    70   34   35 am   BACKBONE|DICT|INTERRES
    71   34  104 1    
    72   35   36 2    
    73   37   38 2    
    74   37   39 am   BACKBONE|DICT|INTERRES
    75   39   40 1    
    76   39  105 1    
    77   40   41 1    
    78   40   42 1    
    79   40  106 1    
    80   41  107 1    
    81   41  108 1    
    82   41  109 1    
    83   42   43 2    
    84   42   44 am   BACKBONE|DICT|INTERRES
    85   44   45 1    
    86   44  110 1    
    87   45   46 1    
    88   45   47 1    
    89   45  111 1    
    90   46  112 1    
    91   46  113 1    
    92   46  114 1    
    93   47   48 2    
    94   47   49 am   BACKBONE|DICT|INTERRES
    95   49   50 1    
    96   49  115 1    
    97   50   51 1    
    98   50   52 1    
    99   50  116 1    
   100   51  117 1    
   101   51  118 1    
   102   51  119 1    
   103   52   53 2    
   104   52   54 am   BACKBONE|DICT|INTERRES
   105   54   55 1    
   106   54  120 1    
   107   55   56 1    
   108   55   57 1    
   109   55  121 1    
   110   56  122 1    
   111   56  123 1    
   112   56  124 1    
   113   57   58 2    
   114   57   59 am   BACKBONE|DICT|INTERRES
   115   59   60 1    
   116   59  125 1    
   117   60   61 1    
   118   60   62 1    
   119   60  126 1    
   120   61  127 1    
   121   61  128 1    
   122   61  129 1    
   123   62   63 2    
   124   62   64 am   BACKBONE|DICT|INTERRES
   125   64   65 1    
   126   64  130 1    
   127   65   66 1    
   128   65   69 1    
   129   65  131 1    
   130   66   67 am   BACKBONE|DICT|INTERRES
   131   66   68 2    
   132   67  132 1    
   133   67  133 1    
   134   69   70 1    
   135   69  134 1    
   136   69  135 1    
   137   70   71 1    
   138   71  136 1    
   139   71  137 1    
@<TRIPOS>SUBSTRUCTURE
     1 UNK         1 GROUP             0       ****    0 ROOT    
