@<TRIPOS>MOLECULE
3R136
137   139    1
SMALL
USER_CHARGES


@<TRIPOS>ATOM
      1 CA         25.0292   26.2442    3.0264 C.3       0 UNK        -0.1979 
      2 C          25.6345   24.9211    2.5862 C.2       0 UNK         0.4864 
      3 O          24.9209   23.9220    2.4765 O.2       0 UNK        -0.5359 
      4 N          26.9464   24.9081    2.3174 N.am      1 UNK        -0.4318 
      5 CA         27.6845   23.7568    1.7923 C.3       1 UNK         0.0824 
      6 C6         29.2124   23.9976    1.8710 C.3       12 UNK        -0.0944 
      7 S7         30.2498   22.7666    1.0046 S.3       12 UNK        -0.2672 
      8 C8         31.8820   23.0488    1.7707 C.3       12 UNK         0.0333 
      9 C9         32.3253   24.5102    1.7672 C.ar      12 UNK        -0.0807 
     10 C10        32.8914   25.0594    2.9212 C.ar      12 UNK        -0.0894 
     11 C11        33.3118   26.3919    2.9453 C.ar      12 UNK        -0.0804 
     12 C12        33.1383   27.1903    1.8110 C.ar      12 UNK        -0.0824 
     13 C13        32.5742   26.6545    0.6487 C.ar      12 UNK        -0.0762 
     14 C14        32.1895   25.3101    0.6263 C.ar      12 UNK        -0.0782 
     15 C15        32.3925   27.5268   -0.5849 C.3       12 UNK         0.0230 
     16 S16        30.8814   28.5373   -0.4862 S.3       12 UNK        -0.2608 
     17 C17        29.5810   27.2956   -0.8053 C.3       12 UNK        -0.0989 
     18 CA         28.1638   27.9100   -0.7029 C.3       5 UNK         0.0716 
     19 N          27.1475   27.0617   -1.3219 N.am      5 UNK        -0.4135 
     20 C          26.0737   27.5381   -1.9670 C.2       4 UNK         0.5031 
     21 O          25.8180   28.7389   -2.0718 O.2       4 UNK        -0.5229 
     22 CA         25.1292   26.5187   -2.6110 C.3       4 UNK         0.0329 
     23 CB         25.8220   25.7723   -3.7650 C.3       4 UNK        -0.2001 
     24 N          24.6425   25.5502   -1.6313 N.am      4 UNK        -0.4303 
     25 C          23.3514   25.2508   -1.4234 C.2       3 UNK         0.5044 
     26 O          22.4180   25.8475   -1.9635 O.2       3 UNK        -0.5152 
     27 CA         23.0439   24.0815   -0.4602 C.3       3 UNK         0.0319 
     28 CB         21.7183   23.3641   -0.7934 C.3       3 UNK        -0.2001 
     29 N          24.1461   23.1179   -0.3441 N.am      3 UNK        -0.4354 
     30 C          24.7074   22.3946   -1.3304 C.2       2 UNK         0.4964 
     31 O          24.2481   22.3239   -2.4711 O.2       2 UNK        -0.5047 
     32 CA         26.0269   21.6595   -1.0021 C.3       2 UNK         0.0288 
     33 CB         26.9857   21.6161   -2.2118 C.3       2 UNK        -0.2113 
     34 N          26.7225   22.1872    0.1813 N.am      2 UNK        -0.4145 
     35 C          27.1674   23.4397    0.3730 C.2       1 UNK         0.5006 
     36 O          27.1073   24.3399   -0.4729 O.2       1 UNK        -0.5103 
     37 C          27.7382   28.2249    0.7412 C.2       5 UNK         0.5055 
     38 O          28.0282   27.4540    1.6587 O.2       5 UNK        -0.5220 
     39 N          27.0399   29.3542    0.9099 N.am      6 UNK        -0.4450 
     40 CA         26.6626   29.9095    2.2122 C.3       6 UNK         0.0367 
     41 CB         25.4972   30.8929    2.0196 C.3       6 UNK        -0.1929 
     42 C          27.8364   30.5977    2.9350 C.2       6 UNK         0.5070 
     43 O          27.7421   30.8418    4.1384 O.2       6 UNK        -0.5237 
     44 N          28.9213   30.9002    2.2071 N.am      7 UNK        -0.4739 
     45 CA         30.1302   31.5758    2.6867 C.3       7 UNK         0.0276 
     46 CB         30.8762   32.1717    1.4778 C.3       7 UNK        -0.1927 
     47 C          31.0355   30.6660    3.5421 C.2       7 UNK         0.5013 
     48 O          32.2343   30.5628    3.2776 O.2       7 UNK        -0.5193 
     49 N          30.4613   30.0497    4.5842 N.am      8 UNK        -0.4253 
     50 CA         31.1462   29.1726    5.5420 C.3       8 UNK         0.0242 
     51 CB         30.1232   28.6085    6.5394 C.3       8 UNK        -0.2000 
     52 C          32.3104   29.8544    6.2858 C.2       8 UNK         0.4948 
     53 O          33.2818   29.1857    6.6390 O.2       8 UNK        -0.5275 
     54 N          32.2184   31.1817    6.4550 N.am      9 UNK        -0.4246 
     55 CA         33.2583   32.0479    7.0139 C.3       9 UNK         0.0261 
     56 CB         32.7073   33.4773    7.1412 C.3       9 UNK        -0.1959 
     57 C          34.5779   32.0519    6.2183 C.2       9 UNK         0.5033 
     58 O          35.6189   32.3465    6.8076 O.2       9 UNK        -0.5390 
     59 N          34.5410   31.6946    4.9228 N.am      10 UNK        -0.4215 
     60 CA         35.7274   31.5611    4.0678 C.3       10 UNK         0.0240 
     61 CB         35.2915   31.3288    2.6121 C.3       10 UNK        -0.1982 
     62 C          36.6906   30.4471    4.5201 C.2       10 UNK         0.4970 
     63 O          37.8782   30.5186    4.2020 O.2       10 UNK        -0.4916 
     64 N          36.1726   29.4596    5.2613 N.am      11 UNK        -0.4279 
     65 CA         36.9503   28.3904    5.8996 C.3       11 UNK         0.1003 
     66 C          37.5422   28.7927    7.2835 C.2       11 UNK         0.5709 
     67 N          37.3047   29.9941    7.8008 N.am      11 UNK        -0.7358 
     68 O          38.2521   28.0003    7.8985 O.2       11 UNK        -0.4999 
     69 C69        36.1306   27.0767    5.9846 C.3       12 UNK        -0.0954 
     70 S70        35.6883   26.4251    4.3390 S.3       12 UNK        -0.2268 
     71 C71        33.9558   26.9583    4.1995 C.3       12 UNK         0.0203 
     72 H72        25.7718   26.8707    3.5193 H         1 UNK         0.0888 
     73 H73        24.2134   26.0751    3.7288 H         1 UNK         0.0888 
     74 H74        24.6363   26.7841    2.1652 H         1 UNK         0.0888 
     75 H75        27.4527   25.7918    2.3134 H         1 UNK         0.3017 
     76 H76        27.4573   22.9054    2.4376 H         1 UNK         0.0873 
     77 H77        29.5166   24.0293    2.9185 H         1 UNK         0.0745 
     78 H78        29.4535   24.9796    1.4689 H         1 UNK         0.0745 
     79 H79        31.8484   22.6620    2.7905 H         1 UNK         0.0705 
     80 H80        32.6267   22.4544    1.2401 H         1 UNK         0.0705 
     81 H81        33.0201   24.4470    3.8034 H         1 UNK         0.1334 
     82 H82        33.4425   28.2285    1.8305 H         1 UNK         0.1417 
     83 H83        31.7622   24.8900   -0.2740 H         1 UNK         0.1562 
     84 H84        32.3693   26.9193   -1.4909 H         1 UNK         0.0748 
     85 H85        33.2513   28.1918   -0.6880 H         1 UNK         0.0748 
     86 H86        29.6977   26.4492   -0.1320 H         1 UNK         0.0940 
     87 H87        29.7421   26.9039   -1.8109 H         1 UNK         0.0940 
     88 H88        28.2010   28.8531   -1.2539 H         1 UNK         0.0703 
     89 H89        27.2518   26.0585   -1.1865 H         1 UNK         0.3081 
     90 H90        24.2959   27.0838   -3.0340 H         1 UNK         0.0719 
     91 H91        26.6500   25.1550   -3.4138 H         1 UNK         0.0809 
     92 H92        25.1213   25.1184   -4.2848 H         1 UNK         0.0809 
     93 H93        26.2211   26.4712   -4.5014 H         1 UNK         0.0809 
     94 H94        25.3514   25.0211   -1.1336 H         1 UNK         0.2990 
     95 H95        22.9336   24.5314    0.5275 H         1 UNK         0.0690 
     96 H96        21.5238   22.5476   -0.0981 H         1 UNK         0.0788 
     97 H97        21.7225   22.9523   -1.8030 H         1 UNK         0.0788 
     98 H98        20.8737   24.0510   -0.7273 H         1 UNK         0.0788 
     99 H99        24.5890   23.1029    0.5693 H         1 UNK         0.2993 
    100 H100       25.7460   20.6328   -0.7625 H         1 UNK         0.0949 
    101 H101       26.5349   21.0875   -3.0526 H         1 UNK         0.0767 
    102 H102       27.2450   22.6168   -2.5591 H         1 UNK         0.0767 
    103 H103       27.9121   21.0973   -1.9649 H         1 UNK         0.0767 
    104 H104       26.8045   21.5372    0.9515 H         1 UNK         0.3013 
    105 H105       26.7866   29.8934    0.0923 H         1 UNK         0.3121 
    106 H106       26.3189   29.0974    2.8548 H         1 UNK         0.0774 
    107 H107       24.6357   30.4031    1.5652 H         1 UNK         0.0815 
    108 H108       25.7787   31.7355    1.3868 H         1 UNK         0.0815 
    109 H109       25.1682   31.3003    2.9767 H         1 UNK         0.0815 
    110 H110       28.9260   30.6231    1.2367 H         1 UNK         0.2987 
    111 H111       29.8251   32.4058    3.3277 H         1 UNK         0.0949 
    112 H112       31.2285   31.3941    0.7988 H         1 UNK         0.0806 
    113 H113       30.2393   32.8510    0.9110 H         1 UNK         0.0806 
    114 H114       31.7490   32.7425    1.7980 H         1 UNK         0.0806 
    115 H115       29.4642   30.1992    4.7156 H         1 UNK         0.3010 
    116 H116       31.5619   28.3400    4.9730 H         1 UNK         0.0829 
    117 H117       29.3431   28.0427    6.0295 H         1 UNK         0.0813 
    118 H118       30.6021   27.9315    7.2485 H         1 UNK         0.0813 
    119 H119       29.6422   29.3997    7.1161 H         1 UNK         0.0813 
    120 H120       31.3766   31.6371    6.1341 H         1 UNK         0.3038 
    121 H121       33.4880   31.6773    8.0151 H         1 UNK         0.0769 
    122 H122       32.4343   33.8934    6.1706 H         1 UNK         0.0811 
    123 H123       33.4495   34.1435    7.5837 H         1 UNK         0.0811 
    124 H124       31.8258   33.5087    7.7820 H         1 UNK         0.0811 
    125 H125       33.6544   31.4297    4.5039 H         1 UNK         0.3204 
    126 H126       36.2744   32.5049    4.1142 H         1 UNK         0.0748 
    127 H127       34.6178   32.1131    2.2661 H         1 UNK         0.0771 
    128 H128       36.1533   31.3225    1.9435 H         1 UNK         0.0771 
    129 H129       34.7817   30.3720    2.4924 H         1 UNK         0.0771 
    130 H130       35.1921   29.4915    5.5101 H         1 UNK         0.2980 
    131 H131       37.8185   28.1821    5.2716 H         1 UNK         0.0545 
    132 H132       37.7076   30.2272    8.6941 H         1 UNK         0.3459 
    133 H133       36.7396   30.6789    7.3132 H         1 UNK         0.3459 
    134 H134       36.7075   26.2978    6.4863 H         1 UNK         0.0616 
    135 H135       35.2308   27.2193    6.5854 H         1 UNK         0.0616 
    136 H136       33.9156   28.0482    4.1870 H         1 UNK         0.0634 
    137 H137       33.3993   26.6304    5.0788 H         1 UNK         0.0634 
@<TRIPOS>BOND
     1    1    2 1    
     2    1   72 1    
     3    1   73 1    
     4    1   74 1    
     5    2    3 2    
     6    2    4 am   BACKBONE|DICT|INTERRES
     7    4    5 1    
     8    4   75 1    
     9    5    6 1    
    10    5   35 1    
    11    5   76 1    
    12    6    7 1    
    13    6   77 1    
    14    6   78 1    
    15    7    8 1    
    16    8    9 1    
    17    8   79 1    
    18    8   80 1    
    19    9   10 ar   
    20    9   14 ar   
    21   10   11 ar   
    22   10   81 1    
    23   11   12 ar   
    24   11   71 1    
    25   12   13 ar   
    26   12   82 1    
    27   13   14 ar   
    28   13   15 1    
    29   14   83 1    
    30   15   16 1    
    31   15   84 1    
    32   15   85 1    
    33   16   17 1    
    34   17   18 1    
    35   17   86 1    
    36   17   87 1    
    37   18   19 1    
    38   18   37 1    
    39   18   88 1    
    40   19   20 am   BACKBONE|DICT|INTERRES
    41   19   89 1    
    42   20   21 2    
    43   20   22 1    
    44   22   23 1    
    45   22   24 1    
    46   22   90 1    
    47   23   91 1    
    48   23   92 1    
    49   23   93 1    
    50   24   25 am   BACKBONE|DICT|INTERRES
    51   24   94 1    
    52   25   26 2    
    53   25   27 1    
    54   27   28 1    
    55   27   29 1    
    56   27   95 1    
    57   28   96 1    
    58   28   97 1    
    59   28   98 1    
    60   29   30 am   BACKBONE|DICT|INTERRES
    61   29   99 1    
    62   30   31 2    
    63   30   32 1    
    64   32   33 1    
    65   32   34 1    
    66   32  100 1    
    67   33  101 1    
    68   33  102 1    
    69   33  103 1    
    70   34   35 am   BACKBONE|DICT|INTERRES
    71   34  104 1    
    72   35   36 2    
    73   37   38 2    
    74   37   39 am   BACKBONE|DICT|INTERRES
    75   39   40 1    
    76   39  105 1    
    77   40   41 1    
    78   40   42 1    
    79   40  106 1    
    80   41  107 1    
    81   41  108 1    
    82   41  109 1    
    83   42   43 2    
    84   42   44 am   BACKBONE|DICT|INTERRES
    85   44   45 1    
    86   44  110 1    
    87   45   46 1    
    88   45   47 1    
    89   45  111 1    
    90   46  112 1    
    91   46  113 1    
    92   46  114 1    
    93   47   48 2    
    94   47   49 am   BACKBONE|DICT|INTERRES
    95   49   50 1    
    96   49  115 1    
    97   50   51 1    
    98   50   52 1    
    99   50  116 1    
   100   51  117 1    
   101   51  118 1    
   102   51  119 1    
   103   52   53 2    
   104   52   54 am   BACKBONE|DICT|INTERRES
   105   54   55 1    
   106   54  120 1    
   107   55   56 1    
   108   55   57 1    
   109   55  121 1    
   110   56  122 1    
   111   56  123 1    
   112   56  124 1    
   113   57   58 2    
   114   57   59 am   BACKBONE|DICT|INTERRES
   115   59   60 1    
   116   59  125 1    
   117   60   61 1    
   118   60   62 1    
   119   60  126 1    
   120   61  127 1    
   121   61  128 1    
   122   61  129 1    
   123   62   63 2    
   124   62   64 am   BACKBONE|DICT|INTERRES
   125   64   65 1    
   126   64  130 1    
   127   65   66 1    
   128   65   69 1    
   129   65  131 1    
   130   66   67 am   BACKBONE|DICT|INTERRES
   131   66   68 2    
   132   67  132 1    
   133   67  133 1    
   134   69   70 1    
   135   69  134 1    
   136   69  135 1    
   137   70   71 1    
   138   71  136 1    
   139   71  137 1    
@<TRIPOS>SUBSTRUCTURE
     1 UNK         1 GROUP             0       ****    0 ROOT    
