@<TRIPOS>MOLECULE
3R136
137   139    1
SMALL
USER_CHARGES


@<TRIPOS>ATOM
      1 CA         30.2377   22.2307    7.1406 C.3       0 UNK        -0.1979 
      2 C          29.3735   21.9123    5.9295 C.2       0 UNK         0.4864 
      3 O          28.3975   21.1699    6.0510 O.2       0 UNK        -0.5359 
      4 N          29.7273   22.4640    4.7636 N.am      1 UNK        -0.4318 
      5 CA         28.9780   22.3435    3.5117 C.3       1 UNK         0.0824 
      6 C6         29.8393   22.7431    2.2890 C.3       12 UNK        -0.0944 
      7 S7         31.3299   21.7140    2.1106 S.3       12 UNK        -0.2672 
      8 C8         31.7632   22.0299    0.3672 C.3       12 UNK         0.0333 
      9 C9         32.1537   23.4738    0.0424 C.ar      12 UNK        -0.0807 
     10 C10        32.8758   24.2703    0.9402 C.ar      12 UNK        -0.0894 
     11 C11        33.2888   25.5562    0.5774 C.ar      12 UNK        -0.0804 
     12 C12        32.9752   26.0492   -0.6939 C.ar      12 UNK        -0.0824 
     13 C13        32.2550   25.2666   -1.6090 C.ar      12 UNK        -0.0762 
     14 C14        31.8458   23.9864   -1.2219 C.ar      12 UNK        -0.0782 
     15 C15        31.9472   25.7099   -3.0441 C.3       12 UNK         0.0230 
     16 S16        32.4183   27.4232   -3.4735 S.3       12 UNK        -0.2608 
     17 C17        30.8005   28.2573   -3.6706 C.3       12 UNK        -0.0989 
     18 CA         30.2623   28.9440   -2.3888 C.3       5 UNK         0.0716 
     19 N          29.9415   27.9492   -1.3629 N.am      5 UNK        -0.4135 
     20 C          29.0286   28.1073   -0.3996 C.2       4 UNK         0.5031 
     21 O          28.4534   29.1712   -0.1615 O.2       4 UNK        -0.5229 
     22 CA         28.7228   26.8479    0.4300 C.3       4 UNK         0.0329 
     23 CB         29.7520   26.6685    1.5487 C.3       4 UNK        -0.2001 
     24 N          27.3826   26.8437    1.0181 N.am      4 UNK        -0.4303 
     25 C          26.2364   26.8177    0.3241 C.2       3 UNK         0.5044 
     26 O          26.1753   26.8295   -0.9077 O.2       3 UNK        -0.5152 
     27 CA         24.9472   26.7073    1.1657 C.3       3 UNK         0.0319 
     28 CB         23.6744   26.5696    0.3029 C.3       3 UNK        -0.2001 
     29 N          25.0096   25.6266    2.1625 N.am      3 UNK        -0.4354 
     30 C          25.2653   24.3287    1.9317 C.2       2 UNK         0.4964 
     31 O          25.4699   23.8414    0.8177 O.2       2 UNK        -0.5047 
     32 CA         25.2915   23.4051    3.1596 C.3       2 UNK         0.0288 
     33 CB         24.1214   22.4075    3.1237 C.3       2 UNK        -0.2113 
     34 N          26.5566   22.6715    3.2164 N.am      2 UNK        -0.4145 
     35 C          27.7180   23.2258    3.5864 C.2       1 UNK         0.5006 
     36 O          27.8241   24.3954    3.9650 O.2       1 UNK        -0.5103 
     37 C          31.1971   30.0777   -1.9122 C.2       5 UNK         0.5055 
     38 O          31.3331   31.0705   -2.6305 O.2       5 UNK        -0.5220 
     39 N          31.8467   29.9116   -0.7541 N.am      6 UNK        -0.4450 
     40 CA         32.8650   30.8175   -0.2270 C.3       6 UNK         0.0367 
     41 CB         34.2389   30.1365   -0.3562 C.3       6 UNK        -0.1929 
     42 C          32.5631   31.1642    1.2344 C.2       6 UNK         0.5070 
     43 O          31.6834   30.5544    1.8466 O.2       6 UNK        -0.5237 
     44 N          33.3061   32.1495    1.7610 N.am      7 UNK        -0.4739 
     45 CA         33.3095   32.6117    3.1576 C.3       7 UNK         0.0276 
     46 CB         33.9530   31.5378    4.0629 C.3       7 UNK        -0.1927 
     47 C          31.9248   33.0537    3.6717 C.2       7 UNK         0.5013 
     48 O          31.6006   32.8107    4.8331 O.2       7 UNK        -0.5193 
     49 N          31.1031   33.6373    2.7847 N.am      8 UNK        -0.4253 
     50 CA         29.6914   33.9914    3.0065 C.3       8 UNK         0.0242 
     51 CB         29.5775   35.1898    3.9733 C.3       8 UNK        -0.2000 
     52 C          28.8257   32.7866    3.4438 C.2       8 UNK         0.4948 
     53 O          27.8961   32.9517    4.2350 O.2       8 UNK        -0.5275 
     54 N          29.1760   31.5970    2.9321 N.am      9 UNK        -0.4246 
     55 CA         28.6218   30.2741    3.2260 C.3       9 UNK         0.0261 
     56 CB         27.1022   30.2040    2.9625 C.3       9 UNK        -0.1959 
     57 C          29.0151   29.7050    4.6035 C.2       9 UNK         0.5033 
     58 O          28.4821   28.6592    4.9782 O.2       9 UNK        -0.5390 
     59 N          29.9530   30.3396    5.3287 N.am      10 UNK        -0.4215 
     60 CA         30.4072   29.8906    6.6534 C.3       10 UNK         0.0240 
     61 CB         31.2852   30.9666    7.3102 C.3       10 UNK        -0.1982 
     62 C          31.1414   28.5379    6.6447 C.2       10 UNK         0.4970 
     63 O          31.1212   27.8476    7.6647 O.2       10 UNK        -0.4916 
     64 N          31.7517   28.1717    5.5088 N.am      11 UNK        -0.4279 
     65 CA         32.3141   26.8334    5.2709 C.3       11 UNK         0.1003 
     66 C          31.2558   25.7404    4.9350 C.2       11 UNK         0.5709 
     67 N          29.9659   26.0532    4.8717 N.am      11 UNK        -0.7358 
     68 O          31.6133   24.5792    4.7537 O.2       11 UNK        -0.4999 
     69 C69        33.5016   26.8660    4.2717 C.3       12 UNK        -0.0954 
     70 S70        33.0757   27.4563    2.5959 S.3       12 UNK        -0.2268 
     71 C71        34.1174   26.3966    1.5392 C.3       12 UNK         0.0203 
     72 H72        31.0996   22.8428    6.8746 H         1 UNK         0.0888 
     73 H73        29.6546   22.7716    7.8853 H         1 UNK         0.0888 
     74 H74        30.6039   21.3102    7.5942 H         1 UNK         0.0888 
     75 H75        30.5154   23.1087    4.7324 H         1 UNK         0.3017 
     76 H76        28.6734   21.3013    3.3939 H         1 UNK         0.0873 
     77 H77        30.1730   23.7766    2.3736 H         1 UNK         0.0745 
     78 H78        29.2536   22.6772    1.3698 H         1 UNK         0.0745 
     79 H79        32.6007   21.3839    0.1013 H         1 UNK         0.0705 
     80 H80        30.9242   21.7137   -0.2547 H         1 UNK         0.0705 
     81 H81        33.1355   23.8859    1.9171 H         1 UNK         0.1334 
     82 H82        33.3234   27.0354   -0.9652 H         1 UNK         0.1417 
     83 H83        31.3108   23.3664   -1.9293 H         1 UNK         0.1562 
     84 H84        30.8886   25.5502   -3.2524 H         1 UNK         0.0748 
     85 H85        32.4869   25.0465   -3.7217 H         1 UNK         0.0748 
     86 H86        30.0646   27.5482   -4.0525 H         1 UNK         0.0940 
     87 H87        30.9089   28.9983   -4.4653 H         1 UNK         0.0940 
     88 H88        29.3252   29.4333   -2.6645 H         1 UNK         0.0703 
     89 H89        30.4063   27.0580   -1.4574 H         1 UNK         0.3081 
     90 H90        28.7804   25.9787   -0.2292 H         1 UNK         0.0719 
     91 H91        30.7301   26.4308    1.1367 H         1 UNK         0.0809 
     92 H92        29.8641   27.5596    2.1635 H         1 UNK         0.0809 
     93 H93        29.4730   25.8504    2.2072 H         1 UNK         0.0809 
     94 H94        27.3344   26.8198    2.0262 H         1 UNK         0.2990 
     95 H95        24.8665   27.6419    1.7230 H         1 UNK         0.0690 
     96 H96        22.7774   26.5393    0.9212 H         1 UNK         0.0788 
     97 H97        23.6931   25.6643   -0.3051 H         1 UNK         0.0788 
     98 H98        23.5700   27.4160   -0.3771 H         1 UNK         0.0788 
     99 H99        24.8741   25.9170    3.1214 H         1 UNK         0.2993 
    100 H100       25.1973   24.0064    4.0671 H         1 UNK         0.0949 
    101 H101       24.1160   21.7706    4.0086 H         1 UNK         0.0767 
    102 H102       23.1648   22.9309    3.0956 H         1 UNK         0.0767 
    103 H103       24.1655   21.7620    2.2453 H         1 UNK         0.0767 
    104 H104       26.5439   21.7179    2.8846 H         1 UNK         0.3013 
    105 H105       31.6032   29.1349   -0.1553 H         1 UNK         0.3121 
    106 H106       32.8768   31.7527   -0.7905 H         1 UNK         0.0774 
    107 H107       34.2979   29.2372    0.2562 H         1 UNK         0.0815 
    108 H108       35.0442   30.7995   -0.0385 H         1 UNK         0.0815 
    109 H109       34.4445   29.8519   -1.3884 H         1 UNK         0.0815 
    110 H110       33.9808   32.6024    1.1588 H         1 UNK         0.2987 
    111 H111       33.9417   33.5003    3.1941 H         1 UNK         0.0949 
    112 H112       33.3425   30.6355    4.1159 H         1 UNK         0.0806 
    113 H113       34.9396   31.2512    3.6992 H         1 UNK         0.0806 
    114 H114       34.0805   31.9058    5.0817 H         1 UNK         0.0806 
    115 H115       31.4547   33.7825    1.8483 H         1 UNK         0.3010 
    116 H116       29.2975   34.3083    2.0396 H         1 UNK         0.0829 
    117 H117       29.8980   34.9275    4.9821 H         1 UNK         0.0813 
    118 H118       30.1837   36.0307    3.6366 H         1 UNK         0.0813 
    119 H119       28.5474   35.5419    4.0414 H         1 UNK         0.0813 
    120 H120       30.0036   31.5610    2.3440 H         1 UNK         0.3038 
    121 H121       29.0958   29.6190    2.4976 H         1 UNK         0.0769 
    122 H122       26.7447   29.1756    3.0190 H         1 UNK         0.0811 
    123 H123       26.5334   30.7823    3.6905 H         1 UNK         0.0811 
    124 H124       26.8569   30.5735    1.9668 H         1 UNK         0.0811 
    125 H125       30.3674   31.1970    4.9747 H         1 UNK         0.3204 
    126 H126       29.5160   29.7662    7.2723 H         1 UNK         0.0748 
    127 H127       31.5444   30.6877    8.3324 H         1 UNK         0.0771 
    128 H128       32.2200   31.1100    6.7674 H         1 UNK         0.0771 
    129 H129       30.7712   31.9268    7.3575 H         1 UNK         0.0771 
    130 H130       31.7130   28.7837    4.7071 H         1 UNK         0.2980 
    131 H131       32.7450   26.5004    6.2169 H         1 UNK         0.0545 
    132 H132       29.6449   27.0013    5.0260 H         1 UNK         0.3459 
    133 H133       29.2794   25.3441    4.6343 H         1 UNK         0.3459 
    134 H134       34.2852   27.5181    4.6598 H         1 UNK         0.0616 
    135 H135       33.9511   25.8739    4.2123 H         1 UNK         0.0616 
    136 H136       34.7536   25.7475    2.1414 H         1 UNK         0.0634 
    137 H137       34.8034   27.0317    0.9780 H         1 UNK         0.0634 
@<TRIPOS>BOND
     1    1    2 1    
     2    1   72 1    
     3    1   73 1    
     4    1   74 1    
     5    2    3 2    
     6    2    4 am   BACKBONE|DICT|INTERRES
     7    4    5 1    
     8    4   75 1    
     9    5    6 1    
    10    5   35 1    
    11    5   76 1    
    12    6    7 1    
    13    6   77 1    
    14    6   78 1    
    15    7    8 1    
    16    8    9 1    
    17    8   79 1    
    18    8   80 1    
    19    9   10 ar   
    20    9   14 ar   
    21   10   11 ar   
    22   10   81 1    
    23   11   12 ar   
    24   11   71 1    
    25   12   13 ar   
    26   12   82 1    
    27   13   14 ar   
    28   13   15 1    
    29   14   83 1    
    30   15   16 1    
    31   15   84 1    
    32   15   85 1    
    33   16   17 1    
    34   17   18 1    
    35   17   86 1    
    36   17   87 1    
    37   18   19 1    
    38   18   37 1    
    39   18   88 1    
    40   19   20 am   BACKBONE|DICT|INTERRES
    41   19   89 1    
    42   20   21 2    
    43   20   22 1    
    44   22   23 1    
    45   22   24 1    
    46   22   90 1    
    47   23   91 1    
    48   23   92 1    
    49   23   93 1    
    50   24   25 am   BACKBONE|DICT|INTERRES
    51   24   94 1    
    52   25   26 2    
    53   25   27 1    
    54   27   28 1    
    55   27   29 1    
    56   27   95 1    
    57   28   96 1    
    58   28   97 1    
    59   28   98 1    
    60   29   30 am   BACKBONE|DICT|INTERRES
    61   29   99 1    
    62   30   31 2    
    63   30   32 1    
    64   32   33 1    
    65   32   34 1    
    66   32  100 1    
    67   33  101 1    
    68   33  102 1    
    69   33  103 1    
    70   34   35 am   BACKBONE|DICT|INTERRES
    71   34  104 1    
    72   35   36 2    
    73   37   38 2    
    74   37   39 am   BACKBONE|DICT|INTERRES
    75   39   40 1    
    76   39  105 1    
    77   40   41 1    
    78   40   42 1    
    79   40  106 1    
    80   41  107 1    
    81   41  108 1    
    82   41  109 1    
    83   42   43 2    
    84   42   44 am   BACKBONE|DICT|INTERRES
    85   44   45 1    
    86   44  110 1    
    87   45   46 1    
    88   45   47 1    
    89   45  111 1    
    90   46  112 1    
    91   46  113 1    
    92   46  114 1    
    93   47   48 2    
    94   47   49 am   BACKBONE|DICT|INTERRES
    95   49   50 1    
    96   49  115 1    
    97   50   51 1    
    98   50   52 1    
    99   50  116 1    
   100   51  117 1    
   101   51  118 1    
   102   51  119 1    
   103   52   53 2    
   104   52   54 am   BACKBONE|DICT|INTERRES
   105   54   55 1    
   106   54  120 1    
   107   55   56 1    
   108   55   57 1    
   109   55  121 1    
   110   56  122 1    
   111   56  123 1    
   112   56  124 1    
   113   57   58 2    
   114   57   59 am   BACKBONE|DICT|INTERRES
   115   59   60 1    
   116   59  125 1    
   117   60   61 1    
   118   60   62 1    
   119   60  126 1    
   120   61  127 1    
   121   61  128 1    
   122   61  129 1    
   123   62   63 2    
   124   62   64 am   BACKBONE|DICT|INTERRES
   125   64   65 1    
   126   64  130 1    
   127   65   66 1    
   128   65   69 1    
   129   65  131 1    
   130   66   67 am   BACKBONE|DICT|INTERRES
   131   66   68 2    
   132   67  132 1    
   133   67  133 1    
   134   69   70 1    
   135   69  134 1    
   136   69  135 1    
   137   70   71 1    
   138   71  136 1    
   139   71  137 1    
@<TRIPOS>SUBSTRUCTURE
     1 UNK         1 GROUP             0       ****    0 ROOT    
