@<TRIPOS>MOLECULE
3R136
137   139    1
SMALL
USER_CHARGES


@<TRIPOS>ATOM
      1 CA         29.4001   26.8299    1.6936 C.3       0 UNK        -0.1979 
      2 C          28.9323   25.8570    2.7597 C.2       0 UNK         0.4864 
      3 O          28.2698   26.2696    3.7120 O.2       0 UNK        -0.5359 
      4 N          29.2708   24.5703    2.6030 N.am      1 UNK        -0.4318 
      5 CA         28.8790   23.4812    3.5035 C.3       1 UNK         0.0824 
      6 C6         29.6735   22.1764    3.2311 C.3       12 UNK        -0.0944 
      7 S7         29.6048   21.5954    1.4950 S.3       12 UNK        -0.2672 
      8 C8         31.3459   21.7024    0.9729 C.3       12 UNK         0.0333 
      9 C9         31.7963   23.1418    0.7708 C.ar      12 UNK        -0.0807 
     10 C10        32.5206   23.8005    1.7679 C.ar      12 UNK        -0.0894 
     11 C11        32.9523   25.1161    1.5802 C.ar      12 UNK        -0.0804 
     12 C12        32.6566   25.7750    0.3836 C.ar      12 UNK        -0.0824 
     13 C13        31.9286   25.1290   -0.6214 C.ar      12 UNK        -0.0762 
     14 C14        31.5078   23.8091   -0.4236 C.ar      12 UNK        -0.0782 
     15 C15        31.6138   25.8516   -1.9245 C.3       12 UNK         0.0230 
     16 S16        29.8215   25.9622   -2.2236 S.3       12 UNK        -0.2608 
     17 C17        29.7758   27.0500   -3.6938 C.3       12 UNK        -0.0989 
     18 CA         29.1046   28.4219   -3.4293 C.3       5 UNK         0.0716 
     19 N          27.7393   28.2544   -2.9194 N.am      5 UNK        -0.4135 
     20 C          26.8138   29.2160   -2.8053 C.2       4 UNK         0.5031 
     21 O          26.9997   30.3768   -3.1738 O.2       4 UNK        -0.5229 
     22 CA         25.4500   28.8289   -2.1920 C.3       4 UNK         0.0329 
     23 CB         24.2832   29.4160   -3.0077 C.3       4 UNK        -0.2001 
     24 N          25.2388   27.3825   -2.0487 N.am      4 UNK        -0.4303 
     25 C          25.7355   26.6173   -1.0693 C.2       3 UNK         0.5044 
     26 O          26.4857   27.0309   -0.1836 O.2       3 UNK        -0.5152 
     27 CA         25.3640   25.1325   -1.1185 C.3       3 UNK         0.0319 
     28 CB         26.2291   24.3794   -2.1474 C.3       3 UNK        -0.2001 
     29 N          25.5515   24.5521    0.2080 N.am      3 UNK        -0.4354 
     30 C          24.9482   23.4462    0.6610 C.2       2 UNK         0.4964 
     31 O          24.1428   22.7942   -0.0062 O.2       2 UNK        -0.5047 
     32 CA         25.3267   22.9778    2.0769 C.3       2 UNK         0.0288 
     33 CB         24.9558   21.5001    2.3346 C.3       2 UNK        -0.2113 
     34 N          26.7544   23.1945    2.3127 N.am      2 UNK        -0.4145 
     35 C          27.3545   23.2369    3.5089 C.2       1 UNK         0.5006 
     36 O          26.7619   23.1057    4.5818 O.2       1 UNK        -0.5103 
     37 C          29.9857   29.3246   -2.5355 C.2       5 UNK         0.5055 
     38 O          30.9253   29.9419   -3.0398 O.2       5 UNK        -0.5220 
     39 N          29.6643   29.3858   -1.2391 N.am      6 UNK        -0.4450 
     40 CA         30.2905   30.2144   -0.2161 C.3       6 UNK         0.0367 
     41 CB         31.6772   29.6502    0.1718 C.3       6 UNK        -0.1929 
     42 C          29.2987   30.3038    0.9558 C.2       6 UNK         0.5070 
     43 O          28.0876   30.2641    0.7269 O.2       6 UNK        -0.5237 
     44 N          29.8109   30.3827    2.1856 N.am      7 UNK        -0.4739 
     45 CA         29.0515   30.3029    3.4289 C.3       7 UNK         0.0276 
     46 CB         28.5351   31.6999    3.8173 C.3       7 UNK        -0.1927 
     47 C          29.9832   29.7458    4.5076 C.2       7 UNK         0.5013 
     48 O          31.2034   29.8743    4.3737 O.2       7 UNK        -0.5193 
     49 N          29.4081   29.1941    5.5842 N.am      8 UNK        -0.4253 
     50 CA         30.1390   28.6124    6.7190 C.3       8 UNK         0.0242 
     51 CB         29.1379   28.0516    7.7409 C.3       8 UNK        -0.2000 
     52 C          31.1240   29.5804    7.4032 C.2       8 UNK         0.4948 
     53 O          32.1736   29.1433    7.8754 O.2       8 UNK        -0.5275 
     54 N          30.7940   30.8800    7.3967 N.am      9 UNK        -0.4246 
     55 CA         31.6553   31.9674    7.8668 C.3       9 UNK         0.0261 
     56 CB         30.8334   33.2645    7.9422 C.3       9 UNK        -0.1959 
     57 C          32.9148   32.1794    7.0038 C.2       9 UNK         0.5033 
     58 O          33.9197   32.6592    7.5305 O.2       9 UNK        -0.5390 
     59 N          32.8494   31.8263    5.7114 N.am      10 UNK        -0.4215 
     60 CA         33.9898   31.8433    4.7941 C.3       10 UNK         0.0240 
     61 CB         33.5064   32.1083    3.3585 C.3       10 UNK        -0.1982 
     62 C          34.7821   30.5294    4.8737 C.2       10 UNK         0.4970 
     63 O          36.0103   30.5703    4.7901 O.2       10 UNK        -0.4916 
     64 N          34.0793   29.3994    5.0454 N.am      11 UNK        -0.4279 
     65 CA         34.6774   28.0747    5.2764 C.3       11 UNK         0.1003 
     66 C          35.5051   27.9966    6.5891 C.2       11 UNK         0.5709 
     67 N          34.9995   28.5186    7.7001 N.am      11 UNK        -0.7358 
     68 O          36.6106   27.4603    6.5965 O.2       11 UNK        -0.4999 
     69 C69        33.6300   26.9327    5.2463 C.3       12 UNK        -0.0954 
     70 S70        32.6665   26.8493    3.7025 S.3       12 UNK        -0.2268 
     71 C71        33.7471   25.8156    2.6704 C.3       12 UNK         0.0203 
     72 H72        28.5757   27.4741    1.3924 H         1 UNK         0.0888 
     73 H73        30.1989   27.4532    2.0904 H         1 UNK         0.0888 
     74 H74        29.7667   26.3171    0.8063 H         1 UNK         0.0888 
     75 H75        29.8455   24.2955    1.8171 H         1 UNK         0.3017 
     76 H76        29.1374   23.8059    4.5141 H         1 UNK         0.0873 
     77 H77        30.7141   22.3245    3.5200 H         1 UNK         0.0745 
     78 H78        29.3153   21.3707    3.8749 H         1 UNK         0.0745 
     79 H79        31.9792   21.1953    1.7027 H         1 UNK         0.0705 
     80 H80        31.4642   21.1519    0.0383 H         1 UNK         0.0705 
     81 H81        32.7537   23.2887    2.6916 H         1 UNK         0.1334 
     82 H82        32.9969   26.7908    0.2384 H         1 UNK         0.1417 
     83 H83        30.9496   23.3032   -1.2002 H         1 UNK         0.1562 
     84 H84        32.0870   25.3224   -2.7528 H         1 UNK         0.0748 
     85 H85        32.0334   26.8590   -1.9148 H         1 UNK         0.0748 
     86 H86        29.2255   26.5239   -4.4755 H         1 UNK         0.0940 
     87 H87        30.7821   27.1859   -4.0956 H         1 UNK         0.0940 
     88 H88        29.0206   28.9346   -4.3899 H         1 UNK         0.0703 
     89 H89        27.5152   27.3350   -2.5685 H         1 UNK         0.3081 
     90 H90        25.4215   29.2783   -1.1968 H         1 UNK         0.0719 
     91 H91        24.3515   30.5031   -3.0690 H         1 UNK         0.0809 
     92 H92        23.3216   29.1837   -2.5496 H         1 UNK         0.0809 
     93 H93        24.2718   29.0322   -4.0285 H         1 UNK         0.0809 
     94 H94        24.6574   26.9474   -2.7514 H         1 UNK         0.2990 
     95 H95        24.3109   25.0566   -1.3988 H         1 UNK         0.0690 
     96 H96        25.9179   23.3388   -2.2404 H         1 UNK         0.0788 
     97 H97        27.2824   24.3852   -1.8660 H         1 UNK         0.0788 
     98 H98        26.1510   24.8265   -3.1391 H         1 UNK         0.0788 
     99 H99        26.1420   25.1027    0.8199 H         1 UNK         0.2993 
    100 H100       24.7621   23.6033    2.7716 H         1 UNK         0.0949 
    101 H101       25.4958   20.8309    1.6637 H         1 UNK         0.0767 
    102 H102       25.1811   21.2001    3.3579 H         1 UNK         0.0767 
    103 H103       23.8893   21.3288    2.1825 H         1 UNK         0.0767 
    104 H104       27.3312   23.2831    1.4868 H         1 UNK         0.3013 
    105 H105       28.8319   28.9022   -0.9246 H         1 UNK         0.3121 
    106 H106       30.4138   31.2235   -0.6140 H         1 UNK         0.0774 
    107 H107       32.2027   30.3187    0.8533 H         1 UNK         0.0815 
    108 H108       31.5970   28.6772    0.6548 H         1 UNK         0.0815 
    109 H109       32.3193   29.5314   -0.7006 H         1 UNK         0.0815 
    110 H110       30.8140   30.3523    2.3206 H         1 UNK         0.2987 
    111 H111       28.2138   29.6126    3.3030 H         1 UNK         0.0949 
    112 H112       29.3538   32.4068    3.9590 H         1 UNK         0.0806 
    113 H113       27.8750   32.1046    3.0499 H         1 UNK         0.0806 
    114 H114       27.9647   31.6665    4.7463 H         1 UNK         0.0806 
    115 H115       28.4008   29.1245    5.6149 H         1 UNK         0.3010 
    116 H116       30.7231   27.7787    6.3259 H         1 UNK         0.0829 
    117 H117       28.5049   27.2839    7.2951 H         1 UNK         0.0813 
    118 H118       29.6569   27.5911    8.5829 H         1 UNK         0.0813 
    119 H119       28.4902   28.8313    8.1437 H         1 UNK         0.0813 
    120 H120       29.9051   31.1426    6.9970 H         1 UNK         0.3038 
    121 H121       31.9902   31.7149    8.8752 H         1 UNK         0.0769 
    122 H122       30.4519   33.5596    6.9638 H         1 UNK         0.0811 
    123 H123       31.4410   34.0896    8.3168 H         1 UNK         0.0811 
    124 H124       29.9841   33.1586    8.6175 H         1 UNK         0.0811 
    125 H125       32.0101   31.3729    5.3659 H         1 UNK         0.3204 
    126 H126       34.6623   32.6577    5.0727 H         1 UNK         0.0748 
    127 H127       32.9426   33.0392    3.2948 H         1 UNK         0.0771 
    128 H128       34.3523   32.1936    2.6750 H         1 UNK         0.0771 
    129 H129       32.8716   31.3053    2.9869 H         1 UNK         0.0771 
    130 H130       33.0666   29.4395    5.0280 H         1 UNK         0.2980 
    131 H131       35.3734   27.8982    4.4541 H         1 UNK         0.0545 
    132 H132       34.0506   28.8836    7.7122 H         1 UNK         0.3459 
    133 H133       35.5317   28.4750    8.5539 H         1 UNK         0.3459 
    134 H134       34.1100   25.9665    5.4114 H         1 UNK         0.0616 
    135 H135       32.9243   27.0520    6.0689 H         1 UNK         0.0616 
    136 H136       34.2571   25.0738    3.2865 H         1 UNK         0.0634 
    137 H137       34.5266   26.4392    2.2305 H         1 UNK         0.0634 
@<TRIPOS>BOND
     1    1    2 1    
     2    1   72 1    
     3    1   73 1    
     4    1   74 1    
     5    2    3 2    
     6    2    4 am   BACKBONE|DICT|INTERRES
     7    4    5 1    
     8    4   75 1    
     9    5    6 1    
    10    5   35 1    
    11    5   76 1    
    12    6    7 1    
    13    6   77 1    
    14    6   78 1    
    15    7    8 1    
    16    8    9 1    
    17    8   79 1    
    18    8   80 1    
    19    9   10 ar   
    20    9   14 ar   
    21   10   11 ar   
    22   10   81 1    
    23   11   12 ar   
    24   11   71 1    
    25   12   13 ar   
    26   12   82 1    
    27   13   14 ar   
    28   13   15 1    
    29   14   83 1    
    30   15   16 1    
    31   15   84 1    
    32   15   85 1    
    33   16   17 1    
    34   17   18 1    
    35   17   86 1    
    36   17   87 1    
    37   18   19 1    
    38   18   37 1    
    39   18   88 1    
    40   19   20 am   BACKBONE|DICT|INTERRES
    41   19   89 1    
    42   20   21 2    
    43   20   22 1    
    44   22   23 1    
    45   22   24 1    
    46   22   90 1    
    47   23   91 1    
    48   23   92 1    
    49   23   93 1    
    50   24   25 am   BACKBONE|DICT|INTERRES
    51   24   94 1    
    52   25   26 2    
    53   25   27 1    
    54   27   28 1    
    55   27   29 1    
    56   27   95 1    
    57   28   96 1    
    58   28   97 1    
    59   28   98 1    
    60   29   30 am   BACKBONE|DICT|INTERRES
    61   29   99 1    
    62   30   31 2    
    63   30   32 1    
    64   32   33 1    
    65   32   34 1    
    66   32  100 1    
    67   33  101 1    
    68   33  102 1    
    69   33  103 1    
    70   34   35 am   BACKBONE|DICT|INTERRES
    71   34  104 1    
    72   35   36 2    
    73   37   38 2    
    74   37   39 am   BACKBONE|DICT|INTERRES
    75   39   40 1    
    76   39  105 1    
    77   40   41 1    
    78   40   42 1    
    79   40  106 1    
    80   41  107 1    
    81   41  108 1    
    82   41  109 1    
    83   42   43 2    
    84   42   44 am   BACKBONE|DICT|INTERRES
    85   44   45 1    
    86   44  110 1    
    87   45   46 1    
    88   45   47 1    
    89   45  111 1    
    90   46  112 1    
    91   46  113 1    
    92   46  114 1    
    93   47   48 2    
    94   47   49 am   BACKBONE|DICT|INTERRES
    95   49   50 1    
    96   49  115 1    
    97   50   51 1    
    98   50   52 1    
    99   50  116 1    
   100   51  117 1    
   101   51  118 1    
   102   51  119 1    
   103   52   53 2    
   104   52   54 am   BACKBONE|DICT|INTERRES
   105   54   55 1    
   106   54  120 1    
   107   55   56 1    
   108   55   57 1    
   109   55  121 1    
   110   56  122 1    
   111   56  123 1    
   112   56  124 1    
   113   57   58 2    
   114   57   59 am   BACKBONE|DICT|INTERRES
   115   59   60 1    
   116   59  125 1    
   117   60   61 1    
   118   60   62 1    
   119   60  126 1    
   120   61  127 1    
   121   61  128 1    
   122   61  129 1    
   123   62   63 2    
   124   62   64 am   BACKBONE|DICT|INTERRES
   125   64   65 1    
   126   64  130 1    
   127   65   66 1    
   128   65   69 1    
   129   65  131 1    
   130   66   67 am   BACKBONE|DICT|INTERRES
   131   66   68 2    
   132   67  132 1    
   133   67  133 1    
   134   69   70 1    
   135   69  134 1    
   136   69  135 1    
   137   70   71 1    
   138   71  136 1    
   139   71  137 1    
@<TRIPOS>SUBSTRUCTURE
     1 UNK         1 GROUP             0       ****    0 ROOT    
