@<TRIPOS>MOLECULE
3R136
137   139    1
SMALL
USER_CHARGES


@<TRIPOS>ATOM
      1 CA         32.0931   22.7040    4.7902 C.3       0 UNK        -0.1979 
      2 C          30.9645   21.8817    4.1848 C.2       0 UNK         0.4864 
      3 O          30.5039   20.9233    4.8066 O.2       0 UNK        -0.5359 
      4 N          30.5218   22.2462    2.9748 N.am      1 UNK        -0.4318 
      5 CA         29.4074   21.6128    2.2614 C.3       1 UNK         0.0824 
      6 C6         29.5033   21.8187    0.7274 C.3       12 UNK        -0.0944 
      7 S7         29.6626   23.5678    0.2283 S.3       12 UNK        -0.2672 
      8 C8         31.3972   23.6349   -0.3177 C.3       12 UNK         0.0333 
      9 C9         31.8611   25.0780   -0.4233 C.ar      12 UNK        -0.0807 
     10 C10        32.5120   25.6838    0.6556 C.ar      12 UNK        -0.0894 
     11 C11        32.8778   27.0312    0.5936 C.ar      12 UNK        -0.0804 
     12 C12        32.6164   27.7632   -0.5651 C.ar      12 UNK        -0.0824 
     13 C13        31.9535   27.1745   -1.6433 C.ar      12 UNK        -0.0762 
     14 C14        31.5927   25.8243   -1.5754 C.ar      12 UNK        -0.0782 
     15 C15        31.5496   28.0256   -2.8387 C.3       12 UNK         0.0230 
     16 S16        30.2907   29.2689   -2.3842 S.3       12 UNK        -0.2608 
     17 C17        28.9876   28.2086   -1.6675 C.3       12 UNK        -0.0989 
     18 CA         27.8393   28.9940   -0.9773 C.3       5 UNK         0.0716 
     19 N          26.5849   28.2283   -0.9297 N.am      5 UNK        -0.4135 
     20 C          26.4120   26.9813   -0.4661 C.2       4 UNK         0.5031 
     21 O          27.3101   26.2660   -0.0148 O.2       4 UNK        -0.5229 
     22 CA         24.9899   26.4160   -0.5655 C.3       4 UNK         0.0329 
     23 CB         24.6237   26.0938   -2.0290 C.3       4 UNK        -0.2001 
     24 N          24.9200   25.2053    0.2474 N.am      4 UNK        -0.4303 
     25 C          23.8063   24.6086    0.6827 C.2       3 UNK         0.5044 
     26 O          22.6698   25.0114    0.4296 O.2       3 UNK        -0.5152 
     27 CA         23.9775   23.3422    1.5417 C.3       3 UNK         0.0319 
     28 CB         23.9091   22.0857    0.6587 C.3       3 UNK        -0.2001 
     29 N          25.2109   23.2992    2.3338 N.am      3 UNK        -0.4354 
     30 C          25.5266   24.1289    3.3354 C.2       2 UNK         0.4964 
     31 O          24.8255   25.0863    3.6651 O.2       2 UNK        -0.5047 
     32 CA         26.8165   23.8522    4.1351 C.3       2 UNK         0.0288 
     33 CB         26.4990   23.0506    5.4121 C.3       2 UNK        -0.2113 
     34 N          27.9415   23.2381    3.4107 N.am      2 UNK        -0.4145 
     35 C          28.0299   22.0342    2.8202 C.2       1 UNK         0.5006 
     36 O          27.0816   21.2553    2.7075 O.2       1 UNK        -0.5103 
     37 C          28.2440   29.5417    0.4130 C.2       5 UNK         0.5055 
     38 O          27.8466   29.0000    1.4471 O.2       5 UNK        -0.5220 
     39 N          29.0169   30.6347    0.4095 N.am      6 UNK        -0.4450 
     40 CA         29.5103   31.3200    1.6065 C.3       6 UNK         0.0367 
     41 CB         28.3946   32.1854    2.2299 C.3       6 UNK        -0.1929 
     42 C          30.7815   32.1311    1.3035 C.2       6 UNK         0.5070 
     43 O          31.0171   33.1486    1.9555 O.2       6 UNK        -0.5237 
     44 N          31.5905   31.6877    0.3271 N.am      7 UNK        -0.4739 
     45 CA         32.7701   32.4156   -0.1694 C.3       7 UNK         0.0276 
     46 CB         33.3433   31.7006   -1.4036 C.3       7 UNK        -0.1927 
     47 C          33.8770   32.6503    0.8777 C.2       7 UNK         0.5013 
     48 O          34.6028   33.6391    0.7683 O.2       7 UNK        -0.5193 
     49 N          33.9697   31.7603    1.8738 N.am      8 UNK        -0.4253 
     50 CA         34.8611   31.8730    3.0322 C.3       8 UNK         0.0242 
     51 CB         35.7675   30.6292    3.0912 C.3       8 UNK        -0.2000 
     52 C          34.0681   32.0526    4.3413 C.2       8 UNK         0.4948 
     53 O          34.6288   31.8281    5.4159 O.2       8 UNK        -0.5275 
     54 N          32.7822   32.4292    4.2426 N.am      9 UNK        -0.4246 
     55 CA         31.7845   32.5926    5.3088 C.3       9 UNK         0.0261 
     56 CB         32.1788   33.7084    6.2970 C.3       9 UNK        -0.1959 
     57 C          31.4323   31.2845    6.0385 C.2       9 UNK         0.5033 
     58 O          30.2774   30.8585    5.9955 O.2       9 UNK        -0.5390 
     59 N          32.4257   30.6526    6.6740 N.am      10 UNK        -0.4215 
     60 CA         32.3162   29.4036    7.4339 C.3       10 UNK         0.0240 
     61 CB         33.4521   29.3579    8.4732 C.3       10 UNK        -0.1982 
     62 C          32.2996   28.1649    6.5148 C.2       10 UNK         0.4970 
     63 O          33.0909   27.2397    6.7060 O.2       10 UNK        -0.4916 
     64 N          31.4062   28.1833    5.5222 N.am      11 UNK        -0.4279 
     65 CA         31.2574   27.1528    4.4840 C.3       11 UNK         0.1003 
     66 C          30.2167   26.0504    4.8252 C.2       11 UNK         0.5709 
     67 N          29.5688   26.0775    5.9838 N.am      11 UNK        -0.7358 
     68 O          30.0083   25.1375    4.0302 O.2       11 UNK        -0.4999 
     69 C69        30.9755   27.7954    3.1039 C.3       12 UNK        -0.0954 
     70 S70        32.3298   28.8961    2.5660 S.3       12 UNK        -0.2268 
     71 C71        33.4942   27.7210    1.7989 C.3       12 UNK         0.0203 
     72 H72        32.9414   22.0630    5.0282 H         1 UNK         0.0888 
     73 H73        32.4370   23.4845    4.1115 H         1 UNK         0.0888 
     74 H74        31.7552   23.1815    5.7096 H         1 UNK         0.0888 
     75 H75        30.9011   23.0717    2.5328 H         1 UNK         0.3017 
     76 H76        29.4789   20.5368    2.4362 H         1 UNK         0.0873 
     77 H77        28.6304   21.3951    0.2268 H         1 UNK         0.0745 
     78 H78        30.3551   21.2577    0.3399 H         1 UNK         0.0745 
     79 H79        32.0294   23.0890    0.3844 H         1 UNK         0.0705 
     80 H80        31.4959   23.1324   -1.2812 H         1 UNK         0.0705 
     81 H81        32.6951   25.1189    1.5592 H         1 UNK         0.1334 
     82 H82        32.8720   28.8105   -0.6014 H         1 UNK         0.1417 
     83 H83        31.0582   25.3653   -2.3961 H         1 UNK         0.1562 
     84 H84        31.1612   27.4034   -3.6465 H         1 UNK         0.0748 
     85 H85        32.4287   28.5354   -3.2355 H         1 UNK         0.0748 
     86 H86        29.4254   27.5026   -0.9602 H         1 UNK         0.0940 
     87 H87        28.5899   27.6030   -2.4835 H         1 UNK         0.0940 
     88 H88        27.6033   29.8588   -1.5998 H         1 UNK         0.0703 
     89 H89        25.7699   28.7272   -1.2567 H         1 UNK         0.3081 
     90 H90        24.2954   27.1555   -0.1612 H         1 UNK         0.0719 
     91 H91        25.2995   25.3514   -2.4556 H         1 UNK         0.0809 
     92 H92        23.6082   25.7067   -2.1125 H         1 UNK         0.0809 
     93 H93        24.6774   26.9834   -2.6573 H         1 UNK         0.0809 
     94 H94        25.8262   24.8505    0.5313 H         1 UNK         0.2990 
     95 H95        23.1398   23.3117    2.2414 H         1 UNK         0.0690 
     96 H96        23.9285   21.1763    1.2599 H         1 UNK         0.0788 
     97 H97        24.7428   22.0416   -0.0434 H         1 UNK         0.0788 
     98 H98        22.9880   22.0673    0.0743 H         1 UNK         0.0788 
     99 H99        25.8241   22.5002    2.1934 H         1 UNK         0.2993 
    100 H100       27.1827   24.8316    4.4468 H         1 UNK         0.0949 
    101 H101       26.1243   22.0528    5.1813 H         1 UNK         0.0767 
    102 H102       27.3833   22.9392    6.0399 H         1 UNK         0.0767 
    103 H103       25.7375   23.5529    6.0104 H         1 UNK         0.0767 
    104 H104       28.7859   23.8065    3.4201 H         1 UNK         0.3013 
    105 H105       29.2935   31.0337   -0.4781 H         1 UNK         0.3121 
    106 H106       29.8031   30.5705    2.3426 H         1 UNK         0.0774 
    107 H107       28.0753   32.9765    1.5508 H         1 UNK         0.0815 
    108 H108       28.7326   32.6600    3.1520 H         1 UNK         0.0815 
    109 H109       27.5192   31.5886    2.4854 H         1 UNK         0.0815 
    110 H110       31.3655   30.8174   -0.1338 H         1 UNK         0.2987 
    111 H111       32.4219   33.4013   -0.4865 H         1 UNK         0.0949 
    112 H112       33.8093   30.7510   -1.1444 H         1 UNK         0.0806 
    113 H113       32.5758   31.5121   -2.1545 H         1 UNK         0.0806 
    114 H114       34.1126   32.3117   -1.8777 H         1 UNK         0.0806 
    115 H115       33.3284   30.9771    1.8779 H         1 UNK         0.3010 
    116 H116       35.5011   32.7522    2.9350 H         1 UNK         0.0829 
    117 H117       36.5318   30.7396    3.8616 H         1 UNK         0.0813 
    118 H118       35.2018   29.7275    3.3256 H         1 UNK         0.0813 
    119 H119       36.2850   30.4677    2.1456 H         1 UNK         0.0813 
    120 H120       32.4201   32.6188    3.3130 H         1 UNK         0.3038 
    121 H121       30.8734   32.9195    4.8047 H         1 UNK         0.0769 
    122 H122       33.0931   33.4760    6.8433 H         1 UNK         0.0811 
    123 H123       31.3927   33.8670    7.0364 H         1 UNK         0.0811 
    124 H124       32.3316   34.6557    5.7800 H         1 UNK         0.0811 
    125 H125       33.3612   31.0322    6.5389 H         1 UNK         0.3204 
    126 H126       31.3693   29.4092    7.9778 H         1 UNK         0.0748 
    127 H127       33.3796   28.4653    9.0962 H         1 UNK         0.0771 
    128 H128       34.4333   29.3471    7.9967 H         1 UNK         0.0771 
    129 H129       33.4133   30.2193    9.1403 H         1 UNK         0.0771 
    130 H130       30.7904   28.9868    5.4548 H         1 UNK         0.2980 
    131 H131       32.2030   26.6155    4.3958 H         1 UNK         0.0545 
    132 H132       29.7386   26.8175    6.6451 H         1 UNK         0.3459 
    133 H133       28.9124   25.3467    6.2022 H         1 UNK         0.3459 
    134 H134       30.0560   28.3803    3.1483 H         1 UNK         0.0616 
    135 H135       30.7997   27.0390    2.3388 H         1 UNK         0.0616 
    136 H136       33.8188   26.9940    2.5446 H         1 UNK         0.0634 
    137 H137       34.3882   28.2608    1.4842 H         1 UNK         0.0634 
@<TRIPOS>BOND
     1    1    2 1    
     2    1   72 1    
     3    1   73 1    
     4    1   74 1    
     5    2    3 2    
     6    2    4 am   BACKBONE|DICT|INTERRES
     7    4    5 1    
     8    4   75 1    
     9    5    6 1    
    10    5   35 1    
    11    5   76 1    
    12    6    7 1    
    13    6   77 1    
    14    6   78 1    
    15    7    8 1    
    16    8    9 1    
    17    8   79 1    
    18    8   80 1    
    19    9   10 ar   
    20    9   14 ar   
    21   10   11 ar   
    22   10   81 1    
    23   11   12 ar   
    24   11   71 1    
    25   12   13 ar   
    26   12   82 1    
    27   13   14 ar   
    28   13   15 1    
    29   14   83 1    
    30   15   16 1    
    31   15   84 1    
    32   15   85 1    
    33   16   17 1    
    34   17   18 1    
    35   17   86 1    
    36   17   87 1    
    37   18   19 1    
    38   18   37 1    
    39   18   88 1    
    40   19   20 am   BACKBONE|DICT|INTERRES
    41   19   89 1    
    42   20   21 2    
    43   20   22 1    
    44   22   23 1    
    45   22   24 1    
    46   22   90 1    
    47   23   91 1    
    48   23   92 1    
    49   23   93 1    
    50   24   25 am   BACKBONE|DICT|INTERRES
    51   24   94 1    
    52   25   26 2    
    53   25   27 1    
    54   27   28 1    
    55   27   29 1    
    56   27   95 1    
    57   28   96 1    
    58   28   97 1    
    59   28   98 1    
    60   29   30 am   BACKBONE|DICT|INTERRES
    61   29   99 1    
    62   30   31 2    
    63   30   32 1    
    64   32   33 1    
    65   32   34 1    
    66   32  100 1    
    67   33  101 1    
    68   33  102 1    
    69   33  103 1    
    70   34   35 am   BACKBONE|DICT|INTERRES
    71   34  104 1    
    72   35   36 2    
    73   37   38 2    
    74   37   39 am   BACKBONE|DICT|INTERRES
    75   39   40 1    
    76   39  105 1    
    77   40   41 1    
    78   40   42 1    
    79   40  106 1    
    80   41  107 1    
    81   41  108 1    
    82   41  109 1    
    83   42   43 2    
    84   42   44 am   BACKBONE|DICT|INTERRES
    85   44   45 1    
    86   44  110 1    
    87   45   46 1    
    88   45   47 1    
    89   45  111 1    
    90   46  112 1    
    91   46  113 1    
    92   46  114 1    
    93   47   48 2    
    94   47   49 am   BACKBONE|DICT|INTERRES
    95   49   50 1    
    96   49  115 1    
    97   50   51 1    
    98   50   52 1    
    99   50  116 1    
   100   51  117 1    
   101   51  118 1    
   102   51  119 1    
   103   52   53 2    
   104   52   54 am   BACKBONE|DICT|INTERRES
   105   54   55 1    
   106   54  120 1    
   107   55   56 1    
   108   55   57 1    
   109   55  121 1    
   110   56  122 1    
   111   56  123 1    
   112   56  124 1    
   113   57   58 2    
   114   57   59 am   BACKBONE|DICT|INTERRES
   115   59   60 1    
   116   59  125 1    
   117   60   61 1    
   118   60   62 1    
   119   60  126 1    
   120   61  127 1    
   121   61  128 1    
   122   61  129 1    
   123   62   63 2    
   124   62   64 am   BACKBONE|DICT|INTERRES
   125   64   65 1    
   126   64  130 1    
   127   65   66 1    
   128   65   69 1    
   129   65  131 1    
   130   66   67 am   BACKBONE|DICT|INTERRES
   131   66   68 2    
   132   67  132 1    
   133   67  133 1    
   134   69   70 1    
   135   69  134 1    
   136   69  135 1    
   137   70   71 1    
   138   71  136 1    
   139   71  137 1    
@<TRIPOS>SUBSTRUCTURE
     1 UNK         1 GROUP             0       ****    0 ROOT    
