@<TRIPOS>MOLECULE
3R136
137   139    1
SMALL
USER_CHARGES


@<TRIPOS>ATOM
      1 CA         30.2649   17.9629    1.2646 C.3       0 UNK        -0.1979 
      2 C          30.0235   19.4431    1.0069 C.2       0 UNK         0.4864 
      3 O          30.5299   19.9825    0.0217 O.2       0 UNK        -0.5359 
      4 N          29.2615   20.1036    1.8879 N.am      1 UNK        -0.4318 
      5 CA         28.8876   21.5163    1.7832 C.3       1 UNK         0.0824 
      6 C6         28.2422   22.0349    3.0926 C.3       12 UNK        -0.0944 
      7 S7         29.4332   22.1300    4.4702 S.3       12 UNK        -0.2672 
      8 C8         29.6219   23.9315    4.6703 C.3       12 UNK         0.0333 
      9 C9         30.6007   24.5190    3.6625 C.ar      12 UNK        -0.0807 
     10 C10        31.9240   24.7698    4.0378 C.ar      12 UNK        -0.0894 
     11 C11        32.8293   25.3219    3.1267 C.ar      12 UNK        -0.0804 
     12 C12        32.4101   25.6005    1.8233 C.ar      12 UNK        -0.0824 
     13 C13        31.0864   25.3700    1.4407 C.ar      12 UNK        -0.0762 
     14 C14        30.1833   24.8389    2.3668 C.ar      12 UNK        -0.0782 
     15 C15        30.6316   25.7091    0.0292 C.3       12 UNK         0.0230 
     16 S16        30.4916   27.5038   -0.2226 S.3       12 UNK        -0.2608 
     17 C17        29.2108   27.9347    1.0010 C.3       12 UNK        -0.0989 
     18 CA         28.1785   28.9337    0.4314 C.3       5 UNK         0.0716 
     19 N          27.3735   28.3489   -0.6411 N.am      5 UNK        -0.4135 
     20 C          26.7554   29.0570   -1.5966 C.2       4 UNK         0.5031 
     21 O          26.8235   30.2848   -1.6822 O.2       4 UNK        -0.5229 
     22 CA         25.9266   28.2836   -2.6397 C.3       4 UNK         0.0329 
     23 CB         26.7377   28.0987   -3.9326 C.3       4 UNK        -0.2001 
     24 N          25.4596   26.9740   -2.1791 N.am      4 UNK        -0.4303 
     25 C          24.5641   26.7713   -1.2021 C.2       3 UNK         0.5044 
     26 O          23.9911   27.6811   -0.6021 O.2       3 UNK        -0.5152 
     27 CA         24.2539   25.3101   -0.8223 C.3       3 UNK         0.0319 
     28 CB         22.8847   24.8905   -1.3820 C.3       3 UNK        -0.2001 
     29 N          25.2654   24.3365   -1.2546 N.am      3 UNK        -0.4354 
     30 C          26.5220   24.2787   -0.7943 C.2       2 UNK         0.4964 
     31 O          27.0011   25.0898    0.0028 O.2       2 UNK        -0.5047 
     32 CA         27.4067   23.1572   -1.3596 C.3       2 UNK         0.0288 
     33 CB         28.2465   23.6752   -2.5397 C.3       2 UNK        -0.2113 
     34 N          28.2924   22.6484   -0.3122 N.am      2 UNK        -0.4145 
     35 C          27.9241   21.7413    0.6016 C.2       1 UNK         0.5006 
     36 O          26.8576   21.1215    0.5646 O.2       1 UNK        -0.5103 
     37 C          27.2612   29.4895    1.5353 C.2       5 UNK         0.5055 
     38 O          27.0298   28.8183    2.5422 O.2       5 UNK        -0.5220 
     39 N          26.7661   30.7177    1.3333 N.am      6 UNK        -0.4450 
     40 CA         26.0178   31.4819    2.3369 C.3       6 UNK         0.0367 
     41 CB         25.3800   32.7114    1.6709 C.3       6 UNK        -0.1929 
     42 C          26.8923   31.9067    3.5328 C.2       6 UNK         0.5070 
     43 O          26.3802   32.0278    4.6456 O.2       6 UNK        -0.5237 
     44 N          28.1940   32.1018    3.2842 N.am      7 UNK        -0.4739 
     45 CA         29.2166   32.4181    4.2788 C.3       7 UNK         0.0276 
     46 CB         29.9388   33.7140    3.8619 C.3       7 UNK        -0.1927 
     47 C          30.1767   31.2259    4.4091 C.2       7 UNK         0.5013 
     48 O          31.3717   31.3613    4.1295 O.2       7 UNK        -0.5193 
     49 N          29.6401   30.0701    4.8297 N.am      8 UNK        -0.4253 
     50 CA         30.3469   28.7988    5.0577 C.3       8 UNK         0.0242 
     51 CB         29.3085   27.6714    5.1953 C.3       8 UNK        -0.2000 
     52 C          31.3306   28.8426    6.2505 C.2       8 UNK         0.4948 
     53 O          31.2253   28.0518    7.1896 O.2       8 UNK        -0.5275 
     54 N          32.2618   29.7924    6.1771 N.am      9 UNK        -0.4246 
     55 CA         33.3367   30.0911    7.1192 C.3       9 UNK         0.0261 
     56 CB         32.7874   30.8072    8.3664 C.3       9 UNK        -0.1959 
     57 C          34.4179   30.9371    6.4290 C.2       9 UNK         0.5033 
     58 O          35.5979   30.7757    6.7408 O.2       9 UNK        -0.5390 
     59 N          34.0158   31.7835    5.4646 N.am      10 UNK        -0.4215 
     60 CA         34.9095   32.5457    4.5848 C.3       10 UNK         0.0240 
     61 CB         34.1069   33.6878    3.9382 C.3       10 UNK        -0.1982 
     62 C          35.5845   31.6773    3.5026 C.2       10 UNK         0.4970 
     63 O          36.4877   32.1609    2.8195 O.2       10 UNK        -0.4916 
     64 N          35.1358   30.4234    3.3652 N.am      11 UNK        -0.4279 
     65 CA         35.6668   29.3897    2.4686 C.3       11 UNK         0.1003 
     66 C          37.1330   28.9407    2.7492 C.2       11 UNK         0.5709 
     67 N          37.7106   29.2343    3.9089 N.am      11 UNK        -0.7358 
     68 O          37.7580   28.3217    1.8913 O.2       11 UNK        -0.4999 
     69 C69        34.6930   28.1824    2.4038 C.3       12 UNK        -0.0954 
     70 S70        34.4253   27.3820    4.0289 S.3       12 UNK        -0.2268 
     71 C71        34.2536   25.6323    3.5587 C.3       12 UNK         0.0203 
     72 H72        29.7687   17.6209    2.1728 H         1 UNK         0.0888 
     73 H73        29.8902   17.3709    0.4300 H         1 UNK         0.0888 
     74 H74        31.3322   17.7694    1.3685 H         1 UNK         0.0888 
     75 H75        28.8677   19.6080    2.6746 H         1 UNK         0.3017 
     76 H76        29.8013   22.0855    1.5984 H         1 UNK         0.0873 
     77 H77        27.4220   21.3820    3.3975 H         1 UNK         0.0745 
     78 H78        27.7880   23.0163    2.9453 H         1 UNK         0.0745 
     79 H79        29.9727   24.1274    5.6848 H         1 UNK         0.0705 
     80 H80        28.6526   24.4261    4.5920 H         1 UNK         0.0705 
     81 H81        32.2472   24.5469    5.0456 H         1 UNK         0.1334 
     82 H82        33.1052   26.0242    1.1118 H         1 UNK         0.1417 
     83 H83        29.1540   24.6788    2.0781 H         1 UNK         0.1562 
     84 H84        29.6689   25.2491   -0.1867 H         1 UNK         0.0748 
     85 H85        31.3402   25.3005   -0.6927 H         1 UNK         0.0748 
     86 H86        29.7208   28.3542    1.8708 H         1 UNK         0.0940 
     87 H87        28.7031   27.0343    1.3508 H         1 UNK         0.0940 
     88 H88        28.7416   29.7771    0.0246 H         1 UNK         0.0703 
     89 H89        27.2458   27.3457   -0.6088 H         1 UNK         0.3081 
     90 H90        25.0480   28.8899   -2.8698 H         1 UNK         0.0719 
     91 H91        26.1396   27.6298   -4.7142 H         1 UNK         0.0809 
     92 H92        27.0773   29.0600   -4.3211 H         1 UNK         0.0809 
     93 H93        27.6232   27.4826   -3.7697 H         1 UNK         0.0809 
     94 H94        25.8645   26.1638   -2.6239 H         1 UNK         0.2990 
     95 H95        24.2028   25.2696    0.2680 H         1 UNK         0.0690 
     96 H96        22.1008   25.5739   -1.0519 H         1 UNK         0.0788 
     97 H97        22.6044   23.8933   -1.0418 H         1 UNK         0.0788 
     98 H98        22.8772   24.8895   -2.4728 H         1 UNK         0.0788 
     99 H99        24.9604   23.6432   -1.9234 H         1 UNK         0.2993 
    100 H100       26.7726   22.3429   -1.7183 H         1 UNK         0.0949 
    101 H101       28.8613   24.5324   -2.2649 H         1 UNK         0.0767 
    102 H102       28.9078   22.8989   -2.9253 H         1 UNK         0.0767 
    103 H103       27.6056   23.9895   -3.3645 H         1 UNK         0.0767 
    104 H104       29.1843   23.1085   -0.2141 H         1 UNK         0.3013 
    105 H105       26.9330   31.1612    0.4379 H         1 UNK         0.3121 
    106 H106       25.2175   30.8458    2.7215 H         1 UNK         0.0774 
    107 H107       26.1321   33.3835    1.2558 H         1 UNK         0.0815 
    108 H108       24.7937   33.2838    2.3913 H         1 UNK         0.0815 
    109 H109       24.7060   32.4212    0.8646 H         1 UNK         0.0815 
    110 H110       28.5231   31.9540    2.3408 H         1 UNK         0.2987 
    111 H111       28.7686   32.5825    5.2614 H         1 UNK         0.0949 
    112 H112       30.4291   33.6125    2.8929 H         1 UNK         0.0806 
    113 H113       29.2430   34.5507    3.7984 H         1 UNK         0.0806 
    114 H114       30.7054   33.9860    4.5887 H         1 UNK         0.0806 
    115 H115       28.6493   30.0626    5.0282 H         1 UNK         0.3010 
    116 H116       30.9468   28.5832    4.1704 H         1 UNK         0.0829 
    117 H117       29.7978   26.7154    5.3788 H         1 UNK         0.0813 
    118 H118       28.6241   27.8507    6.0251 H         1 UNK         0.0813 
    119 H119       28.7178   27.5597    4.2862 H         1 UNK         0.0813 
    120 H120       32.2023   30.3806    5.3494 H         1 UNK         0.3038 
    121 H121       33.7971   29.1484    7.4227 H         1 UNK         0.0769 
    122 H122       32.2801   31.7370    8.1067 H         1 UNK         0.0811 
    123 H123       33.5922   31.0547    9.0598 H         1 UNK         0.0811 
    124 H124       32.0789   30.1790    8.9064 H         1 UNK         0.0811 
    125 H125       33.0286   31.8777    5.2572 H         1 UNK         0.3204 
    126 H126       35.7036   32.9839    5.1930 H         1 UNK         0.0748 
    127 H127       33.6685   34.3420    4.6921 H         1 UNK         0.0771 
    128 H128       34.7452   34.3072    3.3065 H         1 UNK         0.0771 
    129 H129       33.2980   33.3084    3.3119 H         1 UNK         0.0771 
    130 H130       34.3975   30.1146    3.9772 H         1 UNK         0.2980 
    131 H131       35.6881   29.8360    1.4729 H         1 UNK         0.0545 
    132 H132       38.6601   28.9418    4.0759 H         1 UNK         0.3459 
    133 H133       37.1997   29.7286    4.6239 H         1 UNK         0.3459 
    134 H134       33.7220   28.5092    2.0279 H         1 UNK         0.0616 
    135 H135       35.0563   27.4486    1.6826 H         1 UNK         0.0616 
    136 H136       34.9598   25.3782    2.7671 H         1 UNK         0.0634 
    137 H137       34.5265   25.0155    4.4161 H         1 UNK         0.0634 
@<TRIPOS>BOND
     1    1    2 1    
     2    1   72 1    
     3    1   73 1    
     4    1   74 1    
     5    2    3 2    
     6    2    4 am   BACKBONE|DICT|INTERRES
     7    4    5 1    
     8    4   75 1    
     9    5    6 1    
    10    5   35 1    
    11    5   76 1    
    12    6    7 1    
    13    6   77 1    
    14    6   78 1    
    15    7    8 1    
    16    8    9 1    
    17    8   79 1    
    18    8   80 1    
    19    9   10 ar   
    20    9   14 ar   
    21   10   11 ar   
    22   10   81 1    
    23   11   12 ar   
    24   11   71 1    
    25   12   13 ar   
    26   12   82 1    
    27   13   14 ar   
    28   13   15 1    
    29   14   83 1    
    30   15   16 1    
    31   15   84 1    
    32   15   85 1    
    33   16   17 1    
    34   17   18 1    
    35   17   86 1    
    36   17   87 1    
    37   18   19 1    
    38   18   37 1    
    39   18   88 1    
    40   19   20 am   BACKBONE|DICT|INTERRES
    41   19   89 1    
    42   20   21 2    
    43   20   22 1    
    44   22   23 1    
    45   22   24 1    
    46   22   90 1    
    47   23   91 1    
    48   23   92 1    
    49   23   93 1    
    50   24   25 am   BACKBONE|DICT|INTERRES
    51   24   94 1    
    52   25   26 2    
    53   25   27 1    
    54   27   28 1    
    55   27   29 1    
    56   27   95 1    
    57   28   96 1    
    58   28   97 1    
    59   28   98 1    
    60   29   30 am   BACKBONE|DICT|INTERRES
    61   29   99 1    
    62   30   31 2    
    63   30   32 1    
    64   32   33 1    
    65   32   34 1    
    66   32  100 1    
    67   33  101 1    
    68   33  102 1    
    69   33  103 1    
    70   34   35 am   BACKBONE|DICT|INTERRES
    71   34  104 1    
    72   35   36 2    
    73   37   38 2    
    74   37   39 am   BACKBONE|DICT|INTERRES
    75   39   40 1    
    76   39  105 1    
    77   40   41 1    
    78   40   42 1    
    79   40  106 1    
    80   41  107 1    
    81   41  108 1    
    82   41  109 1    
    83   42   43 2    
    84   42   44 am   BACKBONE|DICT|INTERRES
    85   44   45 1    
    86   44  110 1    
    87   45   46 1    
    88   45   47 1    
    89   45  111 1    
    90   46  112 1    
    91   46  113 1    
    92   46  114 1    
    93   47   48 2    
    94   47   49 am   BACKBONE|DICT|INTERRES
    95   49   50 1    
    96   49  115 1    
    97   50   51 1    
    98   50   52 1    
    99   50  116 1    
   100   51  117 1    
   101   51  118 1    
   102   51  119 1    
   103   52   53 2    
   104   52   54 am   BACKBONE|DICT|INTERRES
   105   54   55 1    
   106   54  120 1    
   107   55   56 1    
   108   55   57 1    
   109   55  121 1    
   110   56  122 1    
   111   56  123 1    
   112   56  124 1    
   113   57   58 2    
   114   57   59 am   BACKBONE|DICT|INTERRES
   115   59   60 1    
   116   59  125 1    
   117   60   61 1    
   118   60   62 1    
   119   60  126 1    
   120   61  127 1    
   121   61  128 1    
   122   61  129 1    
   123   62   63 2    
   124   62   64 am   BACKBONE|DICT|INTERRES
   125   64   65 1    
   126   64  130 1    
   127   65   66 1    
   128   65   69 1    
   129   65  131 1    
   130   66   67 am   BACKBONE|DICT|INTERRES
   131   66   68 2    
   132   67  132 1    
   133   67  133 1    
   134   69   70 1    
   135   69  134 1    
   136   69  135 1    
   137   70   71 1    
   138   71  136 1    
   139   71  137 1    
@<TRIPOS>SUBSTRUCTURE
     1 UNK         1 GROUP             0       ****    0 ROOT    
