@<TRIPOS>MOLECULE
3R136
137   139    1
SMALL
USER_CHARGES


@<TRIPOS>ATOM
      1 CA         28.8631   29.5189   -2.1766 C.3       0 UNK        -0.1979 
      2 C          29.3468   28.1287   -1.7923 C.2       0 UNK         0.4864 
      3 O          29.3731   27.2388   -2.6444 O.2       0 UNK        -0.5359 
      4 N          29.7232   27.9384   -0.5189 N.am      1 UNK        -0.4318 
      5 CA         30.1832   26.6736    0.0701 C.3       1 UNK         0.0824 
      6 C6         31.5923   26.2566   -0.4543 C.3       12 UNK        -0.0944 
      7 S7         32.3961   24.8408    0.3833 S.3       12 UNK        -0.2672 
      8 C8         32.9279   25.5371    1.9801 C.3       12 UNK         0.0333 
      9 C9         31.7912   25.6781    2.9871 C.ar      12 UNK        -0.0807 
     10 C10        31.6124   26.8891    3.6589 C.ar      12 UNK        -0.0894 
     11 C11        30.6054   27.0424    4.6191 C.ar      12 UNK        -0.0804 
     12 C12        29.7699   25.9575    4.8978 C.ar      12 UNK        -0.0824 
     13 C13        29.9181   24.7428    4.2200 C.ar      12 UNK        -0.0762 
     14 C14        30.9378   24.6063    3.2727 C.ar      12 UNK        -0.0782 
     15 C15        28.9894   23.5730    4.5221 C.3       12 UNK         0.0230 
     16 S16        27.4938   23.5861    3.4768 S.3       12 UNK        -0.2608 
     17 C17        26.5470   24.9716    4.1950 C.3       12 UNK        -0.0989 
     18 CA         26.6520   26.2443    3.3099 C.3       5 UNK         0.0716 
     19 N          25.9504   26.1243    2.0246 N.am      5 UNK        -0.4135 
     20 C          24.6285   26.0381    1.8186 C.2       4 UNK         0.5031 
     21 O          23.8000   25.9847    2.7280 O.2       4 UNK        -0.5229 
     22 CA         24.1240   26.0674    0.3659 C.3       4 UNK         0.0329 
     23 CB         23.6751   27.4926   -0.0119 C.3       4 UNK        -0.2001 
     24 N          25.0941   25.5741   -0.6200 N.am      4 UNK        -0.4303 
     25 C          24.7537   25.0294   -1.7990 C.2       3 UNK         0.5044 
     26 O          23.5883   24.8869   -2.1729 O.2       3 UNK        -0.5152 
     27 CA         25.8883   24.5650   -2.7364 C.3       3 UNK         0.0319 
     28 CB         26.1862   25.6460   -3.7879 C.3       3 UNK        -0.2001 
     29 N          27.1298   24.2278   -2.0395 N.am      3 UNK        -0.4354 
     30 C          27.2728   23.2200   -1.1678 C.2       2 UNK         0.4964 
     31 O          26.4044   22.3704   -0.9663 O.2       2 UNK        -0.5047 
     32 CA         28.5845   23.1477   -0.3606 C.3       2 UNK         0.0288 
     33 CB         29.4391   21.9579   -0.8276 C.3       2 UNK        -0.2113 
     34 N          29.4255   24.3524   -0.3569 N.am      2 UNK        -0.4145 
     35 C          29.0724   25.6003   -0.0206 C.2       1 UNK         0.5006 
     36 O          27.9082   25.9343    0.2095 O.2       1 UNK        -0.5103 
     37 C          26.3230   27.5571    4.0588 C.2       5 UNK         0.5055 
     38 O          26.4821   27.6266    5.2787 O.2       5 UNK        -0.5220 
     39 N          25.8946   28.5869    3.3142 N.am      6 UNK        -0.4450 
     40 CA         25.5705   29.9127    3.8373 C.3       6 UNK         0.0367 
     41 CB         24.6358   30.6358    2.8531 C.3       6 UNK        -0.1929 
     42 C          26.8282   30.7517    4.1085 C.2       6 UNK         0.5070 
     43 O          26.8944   31.4205    5.1401 O.2       6 UNK        -0.5237 
     44 N          27.7960   30.7060    3.1839 N.am      7 UNK        -0.4739 
     45 CA         29.0430   31.4656    3.2243 C.3       7 UNK         0.0276 
     46 CB         28.7657   32.9638    2.9763 C.3       7 UNK        -0.1927 
     47 C          30.0115   30.9272    2.1635 C.2       7 UNK         0.5013 
     48 O          29.5815   30.2419    1.2303 O.2       7 UNK        -0.5193 
     49 N          31.2859   31.2926    2.3318 N.am      8 UNK        -0.4253 
     50 CA         32.4558   31.1083    1.4722 C.3       8 UNK         0.0242 
     51 CB         32.5495   29.6850    0.8802 C.3       8 UNK        -0.2000 
     52 C          33.6901   31.4423    2.3271 C.2       8 UNK         0.4948 
     53 O          33.5523   31.7324    3.5187 O.2       8 UNK        -0.5275 
     54 N          34.8823   31.3930    1.7208 N.am      9 UNK        -0.4246 
     55 CA         36.1579   31.5768    2.4230 C.3       9 UNK         0.0261 
     56 CB         37.2513   31.9170    1.3964 C.3       9 UNK        -0.1959 
     57 C          36.5763   30.3523    3.2621 C.2       9 UNK         0.5033 
     58 O          37.3970   30.4989    4.1685 O.2       9 UNK        -0.5390 
     59 N          36.0311   29.1723    2.9364 N.am      10 UNK        -0.4215 
     60 CA         36.4307   27.8722    3.4797 C.3       10 UNK         0.0240 
     61 CB         36.6880   26.9090    2.3035 C.3       10 UNK        -0.1982 
     62 C          35.4238   27.2984    4.4958 C.2       10 UNK         0.4970 
     63 O          35.3317   26.0759    4.6162 O.2       10 UNK        -0.4916 
     64 N          34.6972   28.1611    5.2224 N.am      11 UNK        -0.4279 
     65 CA         33.7973   27.7451    6.3185 C.3       11 UNK         0.1003 
     66 C          34.5245   27.1837    7.5771 C.2       11 UNK         0.5709 
     67 N          35.8213   27.4100    7.7555 N.am      11 UNK        -0.7358 
     68 O          33.8989   26.5270    8.4061 O.2       11 UNK        -0.4999 
     69 C69        32.7945   28.8541    6.7367 C.3       12 UNK        -0.0954 
     70 S70        31.7822   29.5157    5.3744 S.3       12 UNK        -0.2268 
     71 C71        30.3615   28.3665    5.3457 C.3       12 UNK         0.0203 
     72 H72        27.8283   29.4742   -2.5149 H         1 UNK         0.0888 
     73 H73        28.9170   30.2165   -1.3414 H         1 UNK         0.0888 
     74 H74        29.4716   29.9161   -2.9884 H         1 UNK         0.0888 
     75 H75        29.6487   28.7195    0.1315 H         1 UNK         0.3017 
     76 H76        30.2756   26.8907    1.1327 H         1 UNK         0.0873 
     77 H77        32.2736   27.1047   -0.3837 H         1 UNK         0.0745 
     78 H78        31.5393   26.0216   -1.5186 H         1 UNK         0.0745 
     79 H79        33.6883   24.8840    2.4106 H         1 UNK         0.0705 
     80 H80        33.4135   26.4967    1.8008 H         1 UNK         0.0705 
     81 H81        32.2778   27.7093    3.4421 H         1 UNK         0.1334 
     82 H82        28.9891   26.0673    5.6377 H         1 UNK         0.1417 
     83 H83        31.0674   23.6651    2.7558 H         1 UNK         0.1562 
     84 H84        28.7049   23.5741    5.5755 H         1 UNK         0.0748 
     85 H85        29.5180   22.6328    4.3575 H         1 UNK         0.0748 
     86 H86        26.9084   25.1460    5.2086 H         1 UNK         0.0940 
     87 H87        25.5067   24.6655    4.3113 H         1 UNK         0.0940 
     88 H88        27.7015   26.3641    3.0383 H         1 UNK         0.0703 
     89 H89        26.5843   26.1303    1.2263 H         1 UNK         0.3081 
     90 H90        23.2479   25.4153    0.3439 H         1 UNK         0.0719 
     91 H91        23.1686   27.5070   -0.9770 H         1 UNK         0.0809 
     92 H92        24.5204   28.1792   -0.0686 H         1 UNK         0.0809 
     93 H93        22.9749   27.8935    0.7226 H         1 UNK         0.0809 
     94 H94        26.0805   25.6438   -0.3911 H         1 UNK         0.2990 
     95 H95        25.5405   23.6684   -3.2536 H         1 UNK         0.0690 
     96 H96        26.9292   25.3050   -4.5091 H         1 UNK         0.0788 
     97 H97        26.5611   26.5621   -3.3288 H         1 UNK         0.0788 
     98 H98        25.2869   25.9055   -4.3483 H         1 UNK         0.0788 
     99 H99        27.8930   24.8842   -2.1339 H         1 UNK         0.2993 
    100 H100       28.2936   22.9679    0.6755 H         1 UNK         0.0949 
    101 H101       30.3063   21.8143   -0.1823 H         1 UNK         0.0767 
    102 H102       28.8668   21.0293   -0.8065 H         1 UNK         0.0767 
    103 H103       29.7980   22.0978   -1.8481 H         1 UNK         0.0767 
    104 H104       30.4136   24.1979   -0.5141 H         1 UNK         0.3013 
    105 H105       25.7961   28.4491    2.3200 H         1 UNK         0.3121 
    106 H106       25.0368   29.7935    4.7831 H         1 UNK         0.0774 
    107 H107       24.3622   31.6219    3.2313 H         1 UNK         0.0815 
    108 H108       25.1022   30.7799    1.8777 H         1 UNK         0.0815 
    109 H109       23.7102   30.0794    2.7041 H         1 UNK         0.0815 
    110 H110       27.6983   30.1144    2.3686 H         1 UNK         0.2987 
    111 H111       29.4995   31.3357    4.2079 H         1 UNK         0.0949 
    112 H112       28.2763   33.1257    2.0151 H         1 UNK         0.0806 
    113 H113       28.1290   33.3913    3.7505 H         1 UNK         0.0806 
    114 H114       29.6895   33.5436    2.9733 H         1 UNK         0.0806 
    115 H115       31.5370   31.7850    3.1828 H         1 UNK         0.3010 
    116 H116       32.4037   31.8376    0.6620 H         1 UNK         0.0829 
    117 H117       31.8139   29.5505    0.0900 H         1 UNK         0.0813 
    118 H118       33.5179   29.4858    0.4216 H         1 UNK         0.0813 
    119 H119       32.3775   28.9204    1.6330 H         1 UNK         0.0813 
    120 H120       34.9283   31.1924    0.7314 H         1 UNK         0.3038 
    121 H121       36.0616   32.4233    3.1068 H         1 UNK         0.0769 
    122 H122       38.2088   32.0914    1.8896 H         1 UNK         0.0811 
    123 H123       37.0068   32.8227    0.8409 H         1 UNK         0.0811 
    124 H124       37.3983   31.1098    0.6776 H         1 UNK         0.0811 
    125 H125       35.3410   29.1586    2.2009 H         1 UNK         0.3204 
    126 H126       37.3734   27.9744    4.0211 H         1 UNK         0.0748 
    127 H127       37.0547   25.9430    2.6534 H         1 UNK         0.0771 
    128 H128       35.7850   26.7251    1.7221 H         1 UNK         0.0771 
    129 H129       37.4439   27.3078    1.6266 H         1 UNK         0.0771 
    130 H130       34.8076   29.1540    5.0777 H         1 UNK         0.2980 
    131 H131       33.2059   26.9097    5.9416 H         1 UNK         0.0545 
    132 H132       36.2782   27.0378    8.5730 H         1 UNK         0.3459 
    133 H133       36.3440   27.9548    7.0892 H         1 UNK         0.3459 
    134 H134       33.3340   29.6942    7.1774 H         1 UNK         0.0616 
    135 H135       32.1208   28.4907    7.5150 H         1 UNK         0.0616 
    136 H136       30.0356   28.1799    6.3700 H         1 UNK         0.0634 
    137 H137       29.5301   28.8680    4.8497 H         1 UNK         0.0634 
@<TRIPOS>BOND
     1    1    2 1    
     2    1   72 1    
     3    1   73 1    
     4    1   74 1    
     5    2    3 2    
     6    2    4 am   BACKBONE|DICT|INTERRES
     7    4    5 1    
     8    4   75 1    
     9    5    6 1    
    10    5   35 1    
    11    5   76 1    
    12    6    7 1    
    13    6   77 1    
    14    6   78 1    
    15    7    8 1    
    16    8    9 1    
    17    8   79 1    
    18    8   80 1    
    19    9   10 ar   
    20    9   14 ar   
    21   10   11 ar   
    22   10   81 1    
    23   11   12 ar   
    24   11   71 1    
    25   12   13 ar   
    26   12   82 1    
    27   13   14 ar   
    28   13   15 1    
    29   14   83 1    
    30   15   16 1    
    31   15   84 1    
    32   15   85 1    
    33   16   17 1    
    34   17   18 1    
    35   17   86 1    
    36   17   87 1    
    37   18   19 1    
    38   18   37 1    
    39   18   88 1    
    40   19   20 am   BACKBONE|DICT|INTERRES
    41   19   89 1    
    42   20   21 2    
    43   20   22 1    
    44   22   23 1    
    45   22   24 1    
    46   22   90 1    
    47   23   91 1    
    48   23   92 1    
    49   23   93 1    
    50   24   25 am   BACKBONE|DICT|INTERRES
    51   24   94 1    
    52   25   26 2    
    53   25   27 1    
    54   27   28 1    
    55   27   29 1    
    56   27   95 1    
    57   28   96 1    
    58   28   97 1    
    59   28   98 1    
    60   29   30 am   BACKBONE|DICT|INTERRES
    61   29   99 1    
    62   30   31 2    
    63   30   32 1    
    64   32   33 1    
    65   32   34 1    
    66   32  100 1    
    67   33  101 1    
    68   33  102 1    
    69   33  103 1    
    70   34   35 am   BACKBONE|DICT|INTERRES
    71   34  104 1    
    72   35   36 2    
    73   37   38 2    
    74   37   39 am   BACKBONE|DICT|INTERRES
    75   39   40 1    
    76   39  105 1    
    77   40   41 1    
    78   40   42 1    
    79   40  106 1    
    80   41  107 1    
    81   41  108 1    
    82   41  109 1    
    83   42   43 2    
    84   42   44 am   BACKBONE|DICT|INTERRES
    85   44   45 1    
    86   44  110 1    
    87   45   46 1    
    88   45   47 1    
    89   45  111 1    
    90   46  112 1    
    91   46  113 1    
    92   46  114 1    
    93   47   48 2    
    94   47   49 am   BACKBONE|DICT|INTERRES
    95   49   50 1    
    96   49  115 1    
    97   50   51 1    
    98   50   52 1    
    99   50  116 1    
   100   51  117 1    
   101   51  118 1    
   102   51  119 1    
   103   52   53 2    
   104   52   54 am   BACKBONE|DICT|INTERRES
   105   54   55 1    
   106   54  120 1    
   107   55   56 1    
   108   55   57 1    
   109   55  121 1    
   110   56  122 1    
   111   56  123 1    
   112   56  124 1    
   113   57   58 2    
   114   57   59 am   BACKBONE|DICT|INTERRES
   115   59   60 1    
   116   59  125 1    
   117   60   61 1    
   118   60   62 1    
   119   60  126 1    
   120   61  127 1    
   121   61  128 1    
   122   61  129 1    
   123   62   63 2    
   124   62   64 am   BACKBONE|DICT|INTERRES
   125   64   65 1    
   126   64  130 1    
   127   65   66 1    
   128   65   69 1    
   129   65  131 1    
   130   66   67 am   BACKBONE|DICT|INTERRES
   131   66   68 2    
   132   67  132 1    
   133   67  133 1    
   134   69   70 1    
   135   69  134 1    
   136   69  135 1    
   137   70   71 1    
   138   71  136 1    
   139   71  137 1    
@<TRIPOS>SUBSTRUCTURE
     1 UNK         1 GROUP             0       ****    0 ROOT    
