@<TRIPOS>MOLECULE
3R136
137   139    1
SMALL
USER_CHARGES


@<TRIPOS>ATOM
      1 CA         26.9916   21.4639    0.9348 C.3       0 UNK        -0.1979 
      2 C          27.3602   22.4768   -0.1370 C.2       0 UNK         0.4864 
      3 O          26.5657   22.7189   -1.0480 O.2       0 UNK        -0.5359 
      4 N          28.5567   23.0734   -0.0400 N.am      1 UNK        -0.4318 
      5 CA         29.0605   24.0913   -0.9697 C.3       1 UNK         0.0824 
      6 C6         30.5547   24.4185   -0.7473 C.3       12 UNK        -0.0944 
      7 S7         31.6006   22.9739   -1.1272 S.3       12 UNK        -0.2672 
      8 C8         33.0886   23.3179   -0.1281 C.3       12 UNK         0.0333 
      9 C9         32.8902   23.2920    1.3878 C.ar      12 UNK        -0.0807 
     10 C10        33.8447   23.9199    2.1916 C.ar      12 UNK        -0.0894 
     11 C11        33.7207   23.9270    3.5830 C.ar      12 UNK        -0.0804 
     12 C12        32.6147   23.3119    4.1780 C.ar      12 UNK        -0.0824 
     13 C13        31.6566   22.6647    3.3893 C.ar      12 UNK        -0.0762 
     14 C14        31.8105   22.6435    2.0009 C.ar      12 UNK        -0.0782 
     15 C15        30.4695   21.9553    4.0291 C.3       12 UNK         0.0230 
     16 S16        28.8881   22.7973    3.6863 S.3       12 UNK        -0.2608 
     17 C17        29.1029   24.3551    4.6033 C.3       12 UNK        -0.0989 
     18 CA         29.1129   25.5860    3.6538 C.3       5 UNK         0.0716 
     19 N          27.7823   25.9602    3.1410 N.am      5 UNK        -0.4135 
     20 C          26.7571   26.4263    3.8761 C.2       4 UNK         0.5031 
     21 O          26.7161   26.4090    5.1066 O.2       4 UNK        -0.5229 
     22 CA         25.5858   27.0825    3.1308 C.3       4 UNK         0.0329 
     23 CB         25.9173   28.5522    2.8241 C.3       4 UNK        -0.2001 
     24 N          25.1986   26.4200    1.8908 N.am      4 UNK        -0.4303 
     25 C          24.6150   25.2224    1.7775 C.2       3 UNK         0.5044 
     26 O          24.3983   24.4765    2.7321 O.2       3 UNK        -0.5152 
     27 CA         24.1795   24.7786    0.3643 C.3       3 UNK         0.0319 
     28 CB         22.7040   25.1359    0.1008 C.3       3 UNK        -0.2001 
     29 N          25.0526   25.2486   -0.7230 N.am      3 UNK        -0.4354 
     30 C          25.2900   26.5042   -1.1420 C.2       2 UNK         0.4964 
     31 O          24.6745   27.4864   -0.7263 O.2       2 UNK        -0.5047 
     32 CA         26.4677   26.7063   -2.1212 C.3       2 UNK         0.0288 
     33 CB         27.0895   28.1159   -2.0169 C.3       2 UNK        -0.2113 
     34 N          27.5110   25.6795   -1.9900 N.am      2 UNK        -0.4145 
     35 C          28.1886   25.3542   -0.8771 C.2       1 UNK         0.5006 
     36 O          28.0931   25.9471    0.2015 O.2       1 UNK        -0.5103 
     37 C          29.7842   26.8182    4.3123 C.2       5 UNK         0.5055 
     38 O          29.7928   26.9154    5.5391 O.2       5 UNK        -0.5220 
     39 N          30.3229   27.7710    3.5419 N.am      6 UNK        -0.4450 
     40 CA         30.4666   27.8022    2.0890 C.3       6 UNK         0.0367 
     41 CB         31.8558   27.2479    1.7176 C.3       6 UNK        -0.1929 
     42 C          30.2294   29.2263    1.5619 C.2       6 UNK         0.5070 
     43 O          29.8499   30.1197    2.3236 O.2       6 UNK        -0.5237 
     44 N          30.4208   29.3997    0.2474 N.am      7 UNK        -0.4739 
     45 CA         30.2443   30.6572   -0.4853 C.3       7 UNK         0.0276 
     46 CB         30.5041   30.3986   -1.9782 C.3       7 UNK        -0.1927 
     47 C          31.1542   31.7912    0.0214 C.2       7 UNK         0.5013 
     48 O          32.2348   31.5248    0.5514 O.2       7 UNK        -0.5193 
     49 N          30.6929   33.0384   -0.1579 N.am      8 UNK        -0.4253 
     50 CA         31.3565   34.2901    0.2431 C.3       8 UNK         0.0242 
     51 CB         32.6174   34.5333   -0.6142 C.3       8 UNK        -0.2000 
     52 C          31.6434   34.3850    1.7579 C.2       8 UNK         0.4948 
     53 O          32.6041   35.0438    2.1590 O.2       8 UNK        -0.5275 
     54 N          30.8053   33.7145    2.5642 N.am      9 UNK        -0.4246 
     55 CA         30.8894   33.5658    4.0217 C.3       9 UNK         0.0261 
     56 CB         30.6986   34.9242    4.7309 C.3       9 UNK        -0.1959 
     57 C          32.1439   32.8086    4.5077 C.2       9 UNK         0.5033 
     58 O          32.5389   32.9751    5.6644 O.2       9 UNK        -0.5390 
     59 N          32.7393   31.9718    3.6447 N.am      10 UNK        -0.4215 
     60 CA         33.8172   31.0507    4.0096 C.3       10 UNK         0.0240 
     61 CB         34.4891   30.5284    2.7295 C.3       10 UNK        -0.1982 
     62 C          33.2839   29.8814    4.8545 C.2       10 UNK         0.4970 
     63 O          32.0916   29.5769    4.7935 O.2       10 UNK        -0.4916 
     64 N          34.1852   29.2384    5.6067 N.am      11 UNK        -0.4279 
     65 CA         33.9289   28.0397    6.4303 C.3       11 UNK         0.1003 
     66 C          32.9908   28.2602    7.6578 C.2       11 UNK         0.5709 
     67 N          32.6372   29.4892    8.0155 N.am      11 UNK        -0.7358 
     68 O          32.6190   27.3044    8.3347 O.2       11 UNK        -0.4999 
     69 C69        33.5202   26.8003    5.5797 C.3       12 UNK        -0.0954 
     70 S70        34.7787   26.3797    4.3292 S.3       12 UNK        -0.2268 
     71 C71        34.8139   24.5641    4.4290 C.3       12 UNK         0.0203 
     72 H72        26.4262   20.6403    0.4996 H         1 UNK         0.0888 
     73 H73        27.8770   21.0455    1.4126 H         1 UNK         0.0888 
     74 H74        26.3756   21.9357    1.7001 H         1 UNK         0.0888 
     75 H75        29.1473   22.8714    0.7521 H         1 UNK         0.3017 
     76 H76        28.9600   23.6822   -1.9777 H         1 UNK         0.0873 
     77 H77        30.7266   24.7490    0.2784 H         1 UNK         0.0745 
     78 H78        30.8742   25.2382   -1.3936 H         1 UNK         0.0745 
     79 H79        33.4817   24.2899   -0.4297 H         1 UNK         0.0705 
     80 H80        33.8512   22.5826   -0.3861 H         1 UNK         0.0705 
     81 H81        34.6978   24.4027    1.7341 H         1 UNK         0.1334 
     82 H82        32.5135   23.3165    5.2545 H         1 UNK         0.1417 
     83 H83        31.0804   22.1165    1.4053 H         1 UNK         0.1562 
     84 H84        30.6035   21.8641    5.1082 H         1 UNK         0.0748 
     85 H85        30.4138   20.9360    3.6446 H         1 UNK         0.0748 
     86 H86        30.0356   24.2963    5.1664 H         1 UNK         0.0940 
     87 H87        28.3194   24.4321    5.3572 H         1 UNK         0.0940 
     88 H88        29.7229   25.3074    2.7942 H         1 UNK         0.0703 
     89 H89        27.7095   26.0107    2.1284 H         1 UNK         0.3081 
     90 H90        24.7205   27.0621    3.7961 H         1 UNK         0.0719 
     91 H91        26.7527   28.6409    2.1283 H         1 UNK         0.0809 
     92 H92        25.0628   29.0698    2.3884 H         1 UNK         0.0809 
     93 H93        26.1926   29.0896    3.7326 H         1 UNK         0.0809 
     94 H94        25.2781   26.9659    1.0391 H         1 UNK         0.2990 
     95 H95        24.2590   23.6904    0.3484 H         1 UNK         0.0690 
     96 H96        22.3776   24.7773   -0.8753 H         1 UNK         0.0788 
     97 H97        22.5290   26.2113    0.1397 H         1 UNK         0.0788 
     98 H98        22.0553   24.6775    0.8482 H         1 UNK         0.0788 
     99 H99        25.6426   24.5145   -1.1052 H         1 UNK         0.2993 
    100 H100       26.0470   26.5997   -3.1220 H         1 UNK         0.0949 
    101 H101       27.8944   28.2427   -2.7398 H         1 UNK         0.0767 
    102 H102       26.3496   28.8900   -2.2230 H         1 UNK         0.0767 
    103 H103       27.4955   28.3101   -1.0236 H         1 UNK         0.0767 
    104 H104       27.6449   25.1009   -2.8083 H         1 UNK         0.3013 
    105 H105       30.7327   28.5818    4.0039 H         1 UNK         0.3121 
    106 H106       29.7027   27.1921    1.6173 H         1 UNK         0.0774 
    107 H107       32.0006   27.1974    0.6387 H         1 UNK         0.0815 
    108 H108       32.6541   27.8648    2.1300 H         1 UNK         0.0815 
    109 H109       31.9949   26.2381    2.1032 H         1 UNK         0.0815 
    110 H110       30.7488   28.6155   -0.2954 H         1 UNK         0.2987 
    111 H111       29.2046   30.9648   -0.3556 H         1 UNK         0.0949 
    112 H112       30.3369   31.3002   -2.5689 H         1 UNK         0.0806 
    113 H113       31.5316   30.0793   -2.1574 H         1 UNK         0.0806 
    114 H114       29.8407   29.6299   -2.3725 H         1 UNK         0.0806 
    115 H115       29.7935   33.1525   -0.6057 H         1 UNK         0.3010 
    116 H116       30.6512   35.0932    0.0241 H         1 UNK         0.0829 
    117 H117       32.3913   34.4758   -1.6789 H         1 UNK         0.0813 
    118 H118       33.0347   35.5233   -0.4270 H         1 UNK         0.0813 
    119 H119       33.3999   33.8052   -0.3975 H         1 UNK         0.0813 
    120 H120       30.0628   33.1890    2.1234 H         1 UNK         0.3038 
    121 H121       30.0457   32.9328    4.3003 H         1 UNK         0.0769 
    122 H122       30.5974   34.7924    5.8087 H         1 UNK         0.0811 
    123 H123       29.7988   35.4313    4.3831 H         1 UNK         0.0811 
    124 H124       31.5456   35.5902    4.5653 H         1 UNK         0.0811 
    125 H125       32.3505   31.8653    2.7143 H         1 UNK         0.3204 
    126 H126       34.5580   31.5983    4.5960 H         1 UNK         0.0748 
    127 H127       35.3246   29.8669    2.9621 H         1 UNK         0.0771 
    128 H128       33.7908   29.9647    2.1105 H         1 UNK         0.0771 
    129 H129       34.8807   31.3471    2.1253 H         1 UNK         0.0771 
    130 H130       35.1409   29.5636    5.6060 H         1 UNK         0.2980 
    131 H131       34.8925   27.8047    6.8832 H         1 UNK         0.0545 
    132 H132       32.0453   29.6165    8.8207 H         1 UNK         0.3459 
    133 H133       32.9269   30.2843    7.4689 H         1 UNK         0.3459 
    134 H134       33.3600   25.9334    6.2218 H         1 UNK         0.0616 
    135 H135       32.5753   26.9717    5.0684 H         1 UNK         0.0616 
    136 H136       34.7502   24.2404    5.4688 H         1 UNK         0.0634 
    137 H137       35.7838   24.2194    4.0679 H         1 UNK         0.0634 
@<TRIPOS>BOND
     1    1    2 1    
     2    1   72 1    
     3    1   73 1    
     4    1   74 1    
     5    2    3 2    
     6    2    4 am   BACKBONE|DICT|INTERRES
     7    4    5 1    
     8    4   75 1    
     9    5    6 1    
    10    5   35 1    
    11    5   76 1    
    12    6    7 1    
    13    6   77 1    
    14    6   78 1    
    15    7    8 1    
    16    8    9 1    
    17    8   79 1    
    18    8   80 1    
    19    9   10 ar   
    20    9   14 ar   
    21   10   11 ar   
    22   10   81 1    
    23   11   12 ar   
    24   11   71 1    
    25   12   13 ar   
    26   12   82 1    
    27   13   14 ar   
    28   13   15 1    
    29   14   83 1    
    30   15   16 1    
    31   15   84 1    
    32   15   85 1    
    33   16   17 1    
    34   17   18 1    
    35   17   86 1    
    36   17   87 1    
    37   18   19 1    
    38   18   37 1    
    39   18   88 1    
    40   19   20 am   BACKBONE|DICT|INTERRES
    41   19   89 1    
    42   20   21 2    
    43   20   22 1    
    44   22   23 1    
    45   22   24 1    
    46   22   90 1    
    47   23   91 1    
    48   23   92 1    
    49   23   93 1    
    50   24   25 am   BACKBONE|DICT|INTERRES
    51   24   94 1    
    52   25   26 2    
    53   25   27 1    
    54   27   28 1    
    55   27   29 1    
    56   27   95 1    
    57   28   96 1    
    58   28   97 1    
    59   28   98 1    
    60   29   30 am   BACKBONE|DICT|INTERRES
    61   29   99 1    
    62   30   31 2    
    63   30   32 1    
    64   32   33 1    
    65   32   34 1    
    66   32  100 1    
    67   33  101 1    
    68   33  102 1    
    69   33  103 1    
    70   34   35 am   BACKBONE|DICT|INTERRES
    71   34  104 1    
    72   35   36 2    
    73   37   38 2    
    74   37   39 am   BACKBONE|DICT|INTERRES
    75   39   40 1    
    76   39  105 1    
    77   40   41 1    
    78   40   42 1    
    79   40  106 1    
    80   41  107 1    
    81   41  108 1    
    82   41  109 1    
    83   42   43 2    
    84   42   44 am   BACKBONE|DICT|INTERRES
    85   44   45 1    
    86   44  110 1    
    87   45   46 1    
    88   45   47 1    
    89   45  111 1    
    90   46  112 1    
    91   46  113 1    
    92   46  114 1    
    93   47   48 2    
    94   47   49 am   BACKBONE|DICT|INTERRES
    95   49   50 1    
    96   49  115 1    
    97   50   51 1    
    98   50   52 1    
    99   50  116 1    
   100   51  117 1    
   101   51  118 1    
   102   51  119 1    
   103   52   53 2    
   104   52   54 am   BACKBONE|DICT|INTERRES
   105   54   55 1    
   106   54  120 1    
   107   55   56 1    
   108   55   57 1    
   109   55  121 1    
   110   56  122 1    
   111   56  123 1    
   112   56  124 1    
   113   57   58 2    
   114   57   59 am   BACKBONE|DICT|INTERRES
   115   59   60 1    
   116   59  125 1    
   117   60   61 1    
   118   60   62 1    
   119   60  126 1    
   120   61  127 1    
   121   61  128 1    
   122   61  129 1    
   123   62   63 2    
   124   62   64 am   BACKBONE|DICT|INTERRES
   125   64   65 1    
   126   64  130 1    
   127   65   66 1    
   128   65   69 1    
   129   65  131 1    
   130   66   67 am   BACKBONE|DICT|INTERRES
   131   66   68 2    
   132   67  132 1    
   133   67  133 1    
   134   69   70 1    
   135   69  134 1    
   136   69  135 1    
   137   70   71 1    
   138   71  136 1    
   139   71  137 1    
@<TRIPOS>SUBSTRUCTURE
     1 UNK         1 GROUP             0       ****    0 ROOT    
