@<TRIPOS>MOLECULE
3R136
137   139    1
SMALL
USER_CHARGES


@<TRIPOS>ATOM
      1 CA         27.6057   22.0796   -3.8116 C.3       0 UNK        -0.1979 
      2 C          28.1764   23.3566   -3.2141 C.2       0 UNK         0.4864 
      3 O          28.3002   24.3619   -3.9153 O.2       0 UNK        -0.5359 
      4 N          28.5050   23.3389   -1.9157 N.am      1 UNK        -0.4318 
      5 CA         29.1342   24.4316   -1.1560 C.3       1 UNK         0.0824 
      6 C6         29.8550   23.8869    0.1028 C.3       12 UNK        -0.0944 
      7 S7         31.0629   22.5682   -0.2749 S.3       12 UNK        -0.2672 
      8 C8         32.6254   23.2819    0.3441 C.3       12 UNK         0.0333 
      9 C9         32.5834   23.7372    1.8026 C.ar      12 UNK        -0.0807 
     10 C10        33.3669   24.8258    2.1939 C.ar      12 UNK        -0.0894 
     11 C11        33.3376   25.2923    3.5103 C.ar      12 UNK        -0.0804 
     12 C12        32.5118   24.6614    4.4461 C.ar      12 UNK        -0.0824 
     13 C13        31.7283   23.5638    4.0731 C.ar      12 UNK        -0.0762 
     14 C14        31.7834   23.0968    2.7577 C.ar      12 UNK        -0.0782 
     15 C15        30.8279   22.8695    5.0878 C.3       12 UNK         0.0230 
     16 S16        29.0547   23.1403    4.7479 S.3       12 UNK        -0.2608 
     17 C17        28.9075   24.9417    4.9821 C.3       12 UNK        -0.0989 
     18 CA         28.3996   25.6529    3.6948 C.3       5 UNK         0.0716 
     19 N          26.9727   25.4471    3.3960 N.am      5 UNK        -0.4135 
     20 C          25.9366   25.8079    4.1717 C.2       4 UNK         0.5031 
     21 O          26.0576   26.2280    5.3233 O.2       4 UNK        -0.5229 
     22 CA         24.5156   25.7277    3.5814 C.3       4 UNK         0.0329 
     23 CB         23.7633   27.0554    3.7902 C.3       4 UNK        -0.2001 
     24 N          24.4736   25.4095    2.1539 N.am      4 UNK        -0.4303 
     25 C          24.3259   24.1902    1.6285 C.2       3 UNK         0.5044 
     26 O          24.3444   23.1549    2.2941 O.2       3 UNK        -0.5152 
     27 CA         24.1038   24.1017    0.1053 C.3       3 UNK         0.0319 
     28 CB         22.6205   24.3285   -0.2452 C.3       3 UNK        -0.2001 
     29 N          24.9802   24.9574   -0.7091 N.am      3 UNK        -0.4354 
     30 C          25.0694   26.2972   -0.7646 C.2       2 UNK         0.4964 
     31 O          24.3571   27.0595   -0.1093 O.2       2 UNK        -0.5047 
     32 CA         26.1700   26.8706   -1.6845 C.3       2 UNK         0.0288 
     33 CB         26.5988   28.2971   -1.2877 C.3       2 UNK        -0.2113 
     34 N          27.3400   25.9878   -1.7895 N.am      2 UNK        -0.4145 
     35 C          28.1229   25.5466   -0.7933 C.2       1 UNK         0.5006 
     36 O          28.0239   25.9400    0.3733 O.2       1 UNK        -0.5103 
     37 C          28.7021   27.1632    3.6877 C.2       5 UNK         0.5055 
     38 O          29.0163   27.7458    4.7263 O.2       5 UNK        -0.5220 
     39 N          28.5657   27.7687    2.5041 N.am      6 UNK        -0.4450 
     40 CA         28.7959   29.1907    2.2573 C.3       6 UNK         0.0367 
     41 CB         27.4628   29.9598    2.3411 C.3       6 UNK        -0.1929 
     42 C          29.5391   29.3778    0.9265 C.2       6 UNK         0.5070 
     43 O          29.2233   30.2920    0.1646 O.2       6 UNK        -0.5237 
     44 N          30.5184   28.4983    0.6648 N.am      7 UNK        -0.4739 
     45 CA         31.3831   28.5355   -0.5212 C.3       7 UNK         0.0276 
     46 CB         32.1872   27.2283   -0.5983 C.3       7 UNK        -0.1927 
     47 C          32.3337   29.7475   -0.5448 C.2       7 UNK         0.5013 
     48 O          32.7360   30.1842   -1.6238 O.2       7 UNK        -0.5193 
     49 N          32.6603   30.2681    0.6410 N.am      8 UNK        -0.4253 
     50 CA         33.4223   31.4845    0.8818 C.3       8 UNK         0.0242 
     51 CB         34.9193   31.1435    0.9907 C.3       8 UNK        -0.2000 
     52 C          32.8984   32.0995    2.1835 C.2       8 UNK         0.4948 
     53 O          32.2709   31.3971    2.9809 O.2       8 UNK        -0.5275 
     54 N          33.2000   33.3853    2.4064 N.am      9 UNK        -0.4246 
     55 CA         32.7955   34.1438    3.5992 C.3       9 UNK         0.0261 
     56 CB         33.1878   35.6194    3.4167 C.3       9 UNK        -0.1959 
     57 C          33.3600   33.5972    4.9263 C.2       9 UNK         0.5033 
     58 O          32.7793   33.8570    5.9808 O.2       9 UNK        -0.5390 
     59 N          34.4703   32.8515    4.8517 N.am      10 UNK        -0.4215 
     60 CA         35.0981   32.1635    5.9793 C.3       10 UNK         0.0240 
     61 CB         36.5559   31.8393    5.6107 C.3       10 UNK        -0.1982 
     62 C          34.3612   30.8817    6.4141 C.2       10 UNK         0.4970 
     63 O          34.6020   30.4202    7.5309 O.2       10 UNK        -0.4916 
     64 N          33.5172   30.3076    5.5443 N.am      11 UNK        -0.4279 
     65 CA         32.7743   29.0687    5.8181 C.3       11 UNK         0.1003 
     66 C          31.6158   29.2855    6.8291 C.2       11 UNK         0.5709 
     67 N          31.3250   28.2928    7.6598 N.am      11 UNK        -0.7358 
     68 O          30.9672   30.3301    6.8545 O.2       11 UNK        -0.4999 
     69 C69        32.2604   28.3933    4.5202 C.3       12 UNK        -0.0954 
     70 S70        33.5837   28.0532    3.3139 S.3       12 UNK        -0.2268 
     71 C71        34.2248   26.4600    3.9154 C.3       12 UNK         0.0203 
     72 H72        27.5445   21.2773   -3.0765 H         1 UNK         0.0888 
     73 H73        26.6042   22.2614   -4.2005 H         1 UNK         0.0888 
     74 H74        28.2341   21.7382   -4.6337 H         1 UNK         0.0888 
     75 H75        28.3795   22.4825   -1.3947 H         1 UNK         0.3017 
     76 H76        29.8881   24.8951   -1.7958 H         1 UNK         0.0873 
     77 H77        29.1327   23.4771    0.8118 H         1 UNK         0.0745 
     78 H78        30.3566   24.7015    0.6271 H         1 UNK         0.0745 
     79 H79        33.4166   22.5396    0.2329 H         1 UNK         0.0705 
     80 H80        32.8925   24.1190   -0.3028 H         1 UNK         0.0705 
     81 H81        34.0048   25.3173    1.4720 H         1 UNK         0.1334 
     82 H82        32.4854   25.0203    5.4658 H         1 UNK         0.1417 
     83 H83        31.1800   22.2442    2.4787 H         1 UNK         0.1562 
     84 H84        31.0535   23.2033    6.1020 H         1 UNK         0.0748 
     85 H85        31.0294   21.7975    5.0695 H         1 UNK         0.0748 
     86 H86        29.8827   25.3337    5.2735 H         1 UNK         0.0940 
     87 H87        28.2611   25.1358    5.8377 H         1 UNK         0.0940 
     88 H88        28.9570   25.2361    2.8541 H         1 UNK         0.0703 
     89 H89        26.7685   25.1374    2.4565 H         1 UNK         0.3081 
     90 H90        23.9859   24.9520    4.1384 H         1 UNK         0.0719 
     91 H91        23.6919   27.3096    4.8486 H         1 UNK         0.0809 
     92 H92        24.2646   27.8841    3.2879 H         1 UNK         0.0809 
     93 H93        22.7443   26.9985    3.4066 H         1 UNK         0.0809 
     94 H94        24.4447   26.1946    1.5060 H         1 UNK         0.2990 
     95 H95        24.3509   23.0781   -0.1813 H         1 UNK         0.0690 
     96 H96        22.4378   24.1803   -1.3095 H         1 UNK         0.0788 
     97 H97        22.2871   25.3336    0.0151 H         1 UNK         0.0788 
     98 H98        21.9819   23.6270    0.2935 H         1 UNK         0.0788 
     99 H99        25.6374   24.4476   -1.2816 H         1 UNK         0.2993 
    100 H100       25.7309   26.9220   -2.6819 H         1 UNK         0.0949 
    101 H101       26.9961   28.3238   -0.2752 H         1 UNK         0.0767 
    102 H102       27.3673   28.6836   -1.9571 H         1 UNK         0.0767 
    103 H103       25.7566   28.9889   -1.3264 H         1 UNK         0.0767 
    104 H104       27.5224   25.5925   -2.7104 H         1 UNK         0.3013 
    105 H105       28.3176   27.2034    1.6914 H         1 UNK         0.3121 
    106 H106       29.4599   29.5971    3.0226 H         1 UNK         0.0774 
    107 H107       26.7412   29.6100    1.6038 H         1 UNK         0.0815 
    108 H108       27.0093   29.8512    3.3263 H         1 UNK         0.0815 
    109 H109       27.6139   31.0268    2.1727 H         1 UNK         0.0815 
    110 H110       30.7132   27.7802    1.3476 H         1 UNK         0.2987 
    111 H111       30.7433   28.6029   -1.4041 H         1 UNK         0.0949 
    112 H112       31.5333   26.3604   -0.6564 H         1 UNK         0.0806 
    113 H113       32.8228   27.2125   -1.4848 H         1 UNK         0.0806 
    114 H114       32.8361   27.1060    0.2693 H         1 UNK         0.0806 
    115 H115       32.2502   29.8744    1.4794 H         1 UNK         0.3010 
    116 H116       33.2548   32.1918    0.0666 H         1 UNK         0.0829 
    117 H117       35.1167   30.4568    1.8153 H         1 UNK         0.0813 
    118 H118       35.5188   32.0391    1.1571 H         1 UNK         0.0813 
    119 H119       35.2851   30.6770    0.0759 H         1 UNK         0.0813 
    120 H120       33.7257   33.8911    1.7070 H         1 UNK         0.3038 
    121 H121       31.7071   34.0862    3.6692 H         1 UNK         0.0769 
    122 H122       32.7135   36.0515    2.5353 H         1 UNK         0.0811 
    123 H123       34.2668   35.7410    3.3133 H         1 UNK         0.0811 
    124 H124       32.8740   36.2159    4.2747 H         1 UNK         0.0811 
    125 H125       34.8837   32.7074    3.9426 H         1 UNK         0.3204 
    126 H126       35.1057   32.8412    6.8358 H         1 UNK         0.0748 
    127 H127       36.6163   31.1642    4.7559 H         1 UNK         0.0771 
    128 H128       37.1149   32.7431    5.3669 H         1 UNK         0.0771 
    129 H129       37.0716   31.3575    6.4428 H         1 UNK         0.0771 
    130 H130       33.3015   30.7626    4.6650 H         1 UNK         0.2980 
    131 H131       33.4782   28.3755    6.2827 H         1 UNK         0.0545 
    132 H132       30.5654   28.4108    8.3113 H         1 UNK         0.3459 
    133 H133       31.8465   27.4311    7.6499 H         1 UNK         0.3459 
    134 H134       31.5206   29.0291    4.0336 H         1 UNK         0.0616 
    135 H135       31.7490   27.4578    4.7498 H         1 UNK         0.0616 
    136 H136       35.2223   26.3105    3.4998 H         1 UNK         0.0634 
    137 H137       34.3521   26.4975    4.9979 H         1 UNK         0.0634 
@<TRIPOS>BOND
     1    1    2 1    
     2    1   72 1    
     3    1   73 1    
     4    1   74 1    
     5    2    3 2    
     6    2    4 am   BACKBONE|DICT|INTERRES
     7    4    5 1    
     8    4   75 1    
     9    5    6 1    
    10    5   35 1    
    11    5   76 1    
    12    6    7 1    
    13    6   77 1    
    14    6   78 1    
    15    7    8 1    
    16    8    9 1    
    17    8   79 1    
    18    8   80 1    
    19    9   10 ar   
    20    9   14 ar   
    21   10   11 ar   
    22   10   81 1    
    23   11   12 ar   
    24   11   71 1    
    25   12   13 ar   
    26   12   82 1    
    27   13   14 ar   
    28   13   15 1    
    29   14   83 1    
    30   15   16 1    
    31   15   84 1    
    32   15   85 1    
    33   16   17 1    
    34   17   18 1    
    35   17   86 1    
    36   17   87 1    
    37   18   19 1    
    38   18   37 1    
    39   18   88 1    
    40   19   20 am   BACKBONE|DICT|INTERRES
    41   19   89 1    
    42   20   21 2    
    43   20   22 1    
    44   22   23 1    
    45   22   24 1    
    46   22   90 1    
    47   23   91 1    
    48   23   92 1    
    49   23   93 1    
    50   24   25 am   BACKBONE|DICT|INTERRES
    51   24   94 1    
    52   25   26 2    
    53   25   27 1    
    54   27   28 1    
    55   27   29 1    
    56   27   95 1    
    57   28   96 1    
    58   28   97 1    
    59   28   98 1    
    60   29   30 am   BACKBONE|DICT|INTERRES
    61   29   99 1    
    62   30   31 2    
    63   30   32 1    
    64   32   33 1    
    65   32   34 1    
    66   32  100 1    
    67   33  101 1    
    68   33  102 1    
    69   33  103 1    
    70   34   35 am   BACKBONE|DICT|INTERRES
    71   34  104 1    
    72   35   36 2    
    73   37   38 2    
    74   37   39 am   BACKBONE|DICT|INTERRES
    75   39   40 1    
    76   39  105 1    
    77   40   41 1    
    78   40   42 1    
    79   40  106 1    
    80   41  107 1    
    81   41  108 1    
    82   41  109 1    
    83   42   43 2    
    84   42   44 am   BACKBONE|DICT|INTERRES
    85   44   45 1    
    86   44  110 1    
    87   45   46 1    
    88   45   47 1    
    89   45  111 1    
    90   46  112 1    
    91   46  113 1    
    92   46  114 1    
    93   47   48 2    
    94   47   49 am   BACKBONE|DICT|INTERRES
    95   49   50 1    
    96   49  115 1    
    97   50   51 1    
    98   50   52 1    
    99   50  116 1    
   100   51  117 1    
   101   51  118 1    
   102   51  119 1    
   103   52   53 2    
   104   52   54 am   BACKBONE|DICT|INTERRES
   105   54   55 1    
   106   54  120 1    
   107   55   56 1    
   108   55   57 1    
   109   55  121 1    
   110   56  122 1    
   111   56  123 1    
   112   56  124 1    
   113   57   58 2    
   114   57   59 am   BACKBONE|DICT|INTERRES
   115   59   60 1    
   116   59  125 1    
   117   60   61 1    
   118   60   62 1    
   119   60  126 1    
   120   61  127 1    
   121   61  128 1    
   122   61  129 1    
   123   62   63 2    
   124   62   64 am   BACKBONE|DICT|INTERRES
   125   64   65 1    
   126   64  130 1    
   127   65   66 1    
   128   65   69 1    
   129   65  131 1    
   130   66   67 am   BACKBONE|DICT|INTERRES
   131   66   68 2    
   132   67  132 1    
   133   67  133 1    
   134   69   70 1    
   135   69  134 1    
   136   69  135 1    
   137   70   71 1    
   138   71  136 1    
   139   71  137 1    
@<TRIPOS>SUBSTRUCTURE
     1 UNK         1 GROUP             0       ****    0 ROOT    
