@<TRIPOS>MOLECULE
3R136
137   139    1
SMALL
USER_CHARGES


@<TRIPOS>ATOM
      1 CA         26.1936   18.8705    3.5674 C.3       0 UNK        -0.1979 
      2 C          27.3064   19.5799    2.8097 C.2       0 UNK         0.4864 
      3 O          28.4668   19.5069    3.2167 O.2       0 UNK        -0.5359 
      4 N          26.9627   20.2620    1.7128 N.am      1 UNK        -0.4318 
      5 CA         27.8805   20.9804    0.8321 C.3       1 UNK         0.0824 
      6 C6         28.3028   22.3527    1.4222 C.3       12 UNK        -0.0944 
      7 S7         29.8396   22.9893    0.6678 S.3       12 UNK        -0.2672 
      8 C8         30.9386   23.1421    2.1101 C.3       12 UNK         0.0333 
      9 C9         30.8015   24.5062    2.7701 C.ar      12 UNK        -0.0807 
     10 C10        31.6300   25.5575    2.3684 C.ar      12 UNK        -0.0894 
     11 C11        31.5403   26.8096    2.9830 C.ar      12 UNK        -0.0804 
     12 C12        30.6062   27.0115    4.0014 C.ar      12 UNK        -0.0824 
     13 C13        29.7458   25.9783    4.3863 C.ar      12 UNK        -0.0762 
     14 C14        29.8569   24.7232    3.7782 C.ar      12 UNK        -0.0782 
     15 C15        28.6752   26.2272    5.4375 C.3       12 UNK         0.0230 
     16 S16        27.0528   26.5476    4.6702 S.3       12 UNK        -0.2608 
     17 C17        27.3468   28.1308    3.8061 C.3       12 UNK        -0.0989 
     18 CA         27.6352   27.9399    2.2893 C.3       5 UNK         0.0716 
     19 N          26.5364   27.2790    1.5739 N.am      5 UNK        -0.4135 
     20 C          25.3158   27.7664    1.3123 C.2       4 UNK         0.5031 
     21 O          24.9449   28.8999    1.6232 O.2       4 UNK        -0.5229 
     22 CA         24.3486   26.8188    0.5684 C.3       4 UNK         0.0329 
     23 CB         22.9518   27.4374    0.3668 C.3       4 UNK        -0.2001 
     24 N          24.8582   26.3730   -0.7345 N.am      4 UNK        -0.4303 
     25 C          25.8369   25.4790   -0.9185 C.2       3 UNK         0.5044 
     26 O          26.4738   24.9678    0.0055 O.2       3 UNK        -0.5152 
     27 CA         26.1826   25.1151   -2.3658 C.3       3 UNK         0.0319 
     28 CB         27.0560   26.2012   -3.0172 C.3       3 UNK        -0.2001 
     29 N          26.9102   23.8498   -2.3514 N.am      3 UNK        -0.4354 
     30 C          26.7793   22.8569   -3.2375 C.2       2 UNK         0.4964 
     31 O          26.0713   22.9280   -4.2430 O.2       2 UNK        -0.5047 
     32 CA         27.5708   21.5616   -2.9711 C.3       2 UNK         0.0288 
     33 CB         28.8017   21.4883   -3.8903 C.3       2 UNK        -0.2113 
     34 N          28.0085   21.4016   -1.5797 N.am      2 UNK        -0.4145 
     35 C          27.2064   21.1054   -0.5482 C.2       1 UNK         0.5006 
     36 O          25.9881   20.9306   -0.6559 O.2       1 UNK        -0.5103 
     37 C          28.0564   29.2519    1.5915 C.2       5 UNK         0.5055 
     38 O          28.1277   30.2982    2.2367 O.2       5 UNK        -0.5220 
     39 N          28.2997   29.1719    0.2740 N.am      6 UNK        -0.4450 
     40 CA         28.4773   30.3082   -0.6399 C.3       6 UNK         0.0367 
     41 CB         28.7193   29.7823   -2.0643 C.3       6 UNK        -0.1929 
     42 C          29.5684   31.3225   -0.2490 C.2       6 UNK         0.5070 
     43 O          29.3524   32.5235   -0.4141 O.2       6 UNK        -0.5237 
     44 N          30.7068   30.8357    0.2648 N.am      7 UNK        -0.4739 
     45 CA         31.8175   31.6796    0.7296 C.3       7 UNK         0.0276 
     46 CB         33.1549   30.9842    0.4237 C.3       7 UNK        -0.1927 
     47 C          31.7086   32.0546    2.2216 C.2       7 UNK         0.5013 
     48 O          32.5375   32.8298    2.7023 O.2       7 UNK        -0.5193 
     49 N          30.6999   31.5120    2.9225 N.am      8 UNK        -0.4253 
     50 CA         30.3430   31.7549    4.3230 C.3       8 UNK         0.0242 
     51 CB         29.5841   33.0970    4.4339 C.3       8 UNK        -0.2000 
     52 C          31.5417   31.6201    5.2834 C.2       8 UNK         0.4948 
     53 O          32.1618   30.5561    5.3311 O.2       8 UNK        -0.5275 
     54 N          31.8546   32.7020    6.0095 N.am      9 UNK        -0.4246 
     55 CA         32.9101   32.8032    7.0205 C.3       9 UNK         0.0261 
     56 CB         32.7728   34.1552    7.7420 C.3       9 UNK        -0.1959 
     57 C          34.3485   32.6100    6.5023 C.2       9 UNK         0.5033 
     58 O          35.2552   32.4816    7.3268 O.2       9 UNK        -0.5390 
     59 N          34.5546   32.5850    5.1760 N.am      10 UNK        -0.4215 
     60 CA         35.8406   32.2401    4.5628 C.3       10 UNK         0.0240 
     61 CB         35.8118   32.5860    3.0671 C.3       10 UNK        -0.1982 
     62 C          36.2191   30.7603    4.7625 C.2       10 UNK         0.4970 
     63 O          37.4112   30.4513    4.7944 O.2       10 UNK        -0.4916 
     64 N          35.2165   29.8816    4.8961 N.am      11 UNK        -0.4279 
     65 CA         35.4014   28.4624    5.2186 C.3       11 UNK         0.1003 
     66 C          35.5707   28.2581    6.7464 C.2       11 UNK         0.5709 
     67 N          36.4619   27.3667    7.1589 N.am      11 UNK        -0.7358 
     68 O          34.8769   28.8672    7.5585 O.2       11 UNK        -0.4999 
     69 C69        34.2404   27.5988    4.6698 C.3       12 UNK        -0.0954 
     70 S70        34.1936   27.6114    2.8467 S.3       12 UNK        -0.2268 
     71 C71        32.4360   27.9503    2.5274 C.3       12 UNK         0.0203 
     72 H72        26.3887   17.7991    3.6047 H         1 UNK         0.0888 
     73 H73        26.1391   19.2435    4.5897 H         1 UNK         0.0888 
     74 H74        25.2211   19.0221    3.0990 H         1 UNK         0.0888 
     75 H75        26.0060   20.2616    1.3777 H         1 UNK         0.3017 
     76 H76        28.7665   20.3537    0.7046 H         1 UNK         0.0873 
     77 H77        28.4601   22.2582    2.4965 H         1 UNK         0.0745 
     78 H78        27.5085   23.0907    1.3184 H         1 UNK         0.0745 
     79 H79        30.7452   22.3428    2.8272 H         1 UNK         0.0705 
     80 H80        31.9674   22.9985    1.7763 H         1 UNK         0.0705 
     81 H81        32.3537   25.4007    1.5799 H         1 UNK         0.1334 
     82 H82        30.5318   27.9812    4.4753 H         1 UNK         0.1417 
     83 H83        29.1966   23.9221    4.0803 H         1 UNK         0.1562 
     84 H84        28.9487   27.0649    6.0812 H         1 UNK         0.0748 
     85 H85        28.5927   25.3565    6.0897 H         1 UNK         0.0748 
     86 H86        28.1692   28.6525    4.2978 H         1 UNK         0.0940 
     87 H87        26.4706   28.7658    3.9485 H         1 UNK         0.0940 
     88 H88        28.4901   27.2710    2.1912 H         1 UNK         0.0703 
     89 H89        26.7272   26.3382    1.2355 H         1 UNK         0.3081 
     90 H90        24.2256   25.9386    1.2036 H         1 UNK         0.0719 
     91 H91        22.2634   26.7252   -0.0886 H         1 UNK         0.0809 
     92 H92        22.9899   28.3228   -0.2690 H         1 UNK         0.0809 
     93 H93        22.5159   27.7390    1.3204 H         1 UNK         0.0809 
     94 H94        24.4136   26.7753   -1.5475 H         1 UNK         0.2990 
     95 H95        25.2498   25.0061   -2.9234 H         1 UNK         0.0690 
     96 H96        27.3196   25.9336   -4.0406 H         1 UNK         0.0788 
     97 H97        27.9833   26.3589   -2.4647 H         1 UNK         0.0788 
     98 H98        26.5303   27.1557   -3.0594 H         1 UNK         0.0788 
     99 H99        27.4539   23.6933   -1.5118 H         1 UNK         0.2993 
    100 H100       26.9103   20.7268   -3.2163 H         1 UNK         0.0949 
    101 H101       29.3275   20.5401   -3.7755 H         1 UNK         0.0767 
    102 H102       28.5122   21.5705   -4.9391 H         1 UNK         0.0767 
    103 H103       29.5083   22.2932   -3.6832 H         1 UNK         0.0767 
    104 H104       28.9897   21.5595   -1.3927 H         1 UNK         0.3013 
    105 H105       28.2284   28.2630   -0.1593 H         1 UNK         0.3121 
    106 H106       27.5309   30.8533   -0.6426 H         1 UNK         0.0774 
    107 H107       28.8526   30.6056   -2.7678 H         1 UNK         0.0815 
    108 H108       29.6127   29.1592   -2.1198 H         1 UNK         0.0815 
    109 H109       27.8739   29.1936   -2.4195 H         1 UNK         0.0815 
    110 H110       30.8091   29.8356    0.3587 H         1 UNK         0.2987 
    111 H111       31.8094   32.6183    0.1708 H         1 UNK         0.0949 
    112 H112       33.3637   30.1671    1.1118 H         1 UNK         0.0806 
    113 H113       33.1803   30.5888   -0.5918 H         1 UNK         0.0806 
    114 H114       33.9794   31.6922    0.5074 H         1 UNK         0.0806 
    115 H115       30.0375   30.9317    2.4195 H         1 UNK         0.3010 
    116 H116       29.6483   30.9614    4.6022 H         1 UNK         0.0829 
    117 H117       28.7030   33.0939    3.7914 H         1 UNK         0.0813 
    118 H118       29.2293   33.2747    5.4502 H         1 UNK         0.0813 
    119 H119       30.2010   33.9454    4.1344 H         1 UNK         0.0813 
    120 H120       31.3004   33.5335    5.8638 H         1 UNK         0.3038 
    121 H121       32.7346   32.0088    7.7490 H         1 UNK         0.0769 
    122 H122       33.5129   34.2528    8.5376 H         1 UNK         0.0811 
    123 H123       31.7913   34.2626    8.2043 H         1 UNK         0.0811 
    124 H124       32.9180   34.9929    7.0587 H         1 UNK         0.0811 
    125 H125       33.7655   32.7074    4.5503 H         1 UNK         0.3204 
    126 H126       36.6142   32.8481    5.0368 H         1 UNK         0.0748 
    127 H127       36.7907   32.4301    2.6119 H         1 UNK         0.0771 
    128 H128       35.1008   31.9593    2.5303 H         1 UNK         0.0771 
    129 H129       35.5364   33.6277    2.9010 H         1 UNK         0.0771 
    130 H130       34.2600   30.2156    4.9213 H         1 UNK         0.2980 
    131 H131       36.3183   28.1183    4.7350 H         1 UNK         0.0545 
    132 H132       37.0278   26.8517    6.5022 H         1 UNK         0.3459 
    133 H133       36.5747   27.2095    8.1482 H         1 UNK         0.3459 
    134 H134       33.2866   27.9438    5.0732 H         1 UNK         0.0616 
    135 H135       34.3484   26.5592    4.9843 H         1 UNK         0.0616 
    136 H136       32.1588   28.8889    3.0098 H         1 UNK         0.0634 
    137 H137       32.2948   28.0949    1.4560 H         1 UNK         0.0634 
@<TRIPOS>BOND
     1    1    2 1    
     2    1   72 1    
     3    1   73 1    
     4    1   74 1    
     5    2    3 2    
     6    2    4 am   BACKBONE|DICT|INTERRES
     7    4    5 1    
     8    4   75 1    
     9    5    6 1    
    10    5   35 1    
    11    5   76 1    
    12    6    7 1    
    13    6   77 1    
    14    6   78 1    
    15    7    8 1    
    16    8    9 1    
    17    8   79 1    
    18    8   80 1    
    19    9   10 ar   
    20    9   14 ar   
    21   10   11 ar   
    22   10   81 1    
    23   11   12 ar   
    24   11   71 1    
    25   12   13 ar   
    26   12   82 1    
    27   13   14 ar   
    28   13   15 1    
    29   14   83 1    
    30   15   16 1    
    31   15   84 1    
    32   15   85 1    
    33   16   17 1    
    34   17   18 1    
    35   17   86 1    
    36   17   87 1    
    37   18   19 1    
    38   18   37 1    
    39   18   88 1    
    40   19   20 am   BACKBONE|DICT|INTERRES
    41   19   89 1    
    42   20   21 2    
    43   20   22 1    
    44   22   23 1    
    45   22   24 1    
    46   22   90 1    
    47   23   91 1    
    48   23   92 1    
    49   23   93 1    
    50   24   25 am   BACKBONE|DICT|INTERRES
    51   24   94 1    
    52   25   26 2    
    53   25   27 1    
    54   27   28 1    
    55   27   29 1    
    56   27   95 1    
    57   28   96 1    
    58   28   97 1    
    59   28   98 1    
    60   29   30 am   BACKBONE|DICT|INTERRES
    61   29   99 1    
    62   30   31 2    
    63   30   32 1    
    64   32   33 1    
    65   32   34 1    
    66   32  100 1    
    67   33  101 1    
    68   33  102 1    
    69   33  103 1    
    70   34   35 am   BACKBONE|DICT|INTERRES
    71   34  104 1    
    72   35   36 2    
    73   37   38 2    
    74   37   39 am   BACKBONE|DICT|INTERRES
    75   39   40 1    
    76   39  105 1    
    77   40   41 1    
    78   40   42 1    
    79   40  106 1    
    80   41  107 1    
    81   41  108 1    
    82   41  109 1    
    83   42   43 2    
    84   42   44 am   BACKBONE|DICT|INTERRES
    85   44   45 1    
    86   44  110 1    
    87   45   46 1    
    88   45   47 1    
    89   45  111 1    
    90   46  112 1    
    91   46  113 1    
    92   46  114 1    
    93   47   48 2    
    94   47   49 am   BACKBONE|DICT|INTERRES
    95   49   50 1    
    96   49  115 1    
    97   50   51 1    
    98   50   52 1    
    99   50  116 1    
   100   51  117 1    
   101   51  118 1    
   102   51  119 1    
   103   52   53 2    
   104   52   54 am   BACKBONE|DICT|INTERRES
   105   54   55 1    
   106   54  120 1    
   107   55   56 1    
   108   55   57 1    
   109   55  121 1    
   110   56  122 1    
   111   56  123 1    
   112   56  124 1    
   113   57   58 2    
   114   57   59 am   BACKBONE|DICT|INTERRES
   115   59   60 1    
   116   59  125 1    
   117   60   61 1    
   118   60   62 1    
   119   60  126 1    
   120   61  127 1    
   121   61  128 1    
   122   61  129 1    
   123   62   63 2    
   124   62   64 am   BACKBONE|DICT|INTERRES
   125   64   65 1    
   126   64  130 1    
   127   65   66 1    
   128   65   69 1    
   129   65  131 1    
   130   66   67 am   BACKBONE|DICT|INTERRES
   131   66   68 2    
   132   67  132 1    
   133   67  133 1    
   134   69   70 1    
   135   69  134 1    
   136   69  135 1    
   137   70   71 1    
   138   71  136 1    
   139   71  137 1    
@<TRIPOS>SUBSTRUCTURE
     1 UNK         1 GROUP             0       ****    0 ROOT    
