@<TRIPOS>MOLECULE
3R136
137   139    1
SMALL
USER_CHARGES


@<TRIPOS>ATOM
      1 CA         28.8502   16.5551   -1.6330 C.3       0 UNK        -0.1979 
      2 C          28.5544   18.0440   -1.5284 C.2       0 UNK         0.4864 
      3 O          28.2428   18.6784   -2.5376 O.2       0 UNK        -0.5359 
      4 N          28.6545   18.6084   -0.3176 N.am      1 UNK        -0.4318 
      5 CA         28.3497   20.0090   -0.0201 C.3       1 UNK         0.0824 
      6 C6         29.0296   20.4607    1.2994 C.3       12 UNK        -0.0944 
      7 S7         29.2006   22.2737    1.4176 S.3       12 UNK        -0.2672 
      8 C8         30.9847   22.4620    1.1271 C.3       12 UNK         0.0333 
      9 C9         31.4288   23.9159    1.1977 C.ar      12 UNK        -0.0807 
     10 C10        31.8491   24.4656    2.4131 C.ar      12 UNK        -0.0894 
     11 C11        32.3435   25.7731    2.4699 C.ar      12 UNK        -0.0804 
     12 C12        32.4180   26.5285    1.2960 C.ar      12 UNK        -0.0824 
     13 C13        31.9605   26.0059    0.0816 C.ar      12 UNK        -0.0762 
     14 C14        31.4659   24.6985    0.0397 C.ar      12 UNK        -0.0782 
     15 C15        32.0305   26.8355   -1.1939 C.3       12 UNK         0.0230 
     16 S16        30.5014   27.7854   -1.4840 S.3       12 UNK        -0.2608 
     17 C17        30.6663   29.1322   -0.2611 C.3       12 UNK        -0.0989 
     18 CA         29.5888   29.1140    0.8593 C.3       5 UNK         0.0716 
     19 N          29.3980   27.7730    1.4317 N.am      5 UNK        -0.4135 
     20 C          28.2986   27.3389    2.0567 C.2       4 UNK         0.5031 
     21 O          27.3392   28.0638    2.3320 O.2       4 UNK        -0.5229 
     22 CA         28.2765   25.8659    2.4853 C.3       4 UNK         0.0329 
     23 CB         28.5590   25.7229    3.9889 C.3       4 UNK        -0.2001 
     24 N          26.9776   25.2666    2.1828 N.am      4 UNK        -0.4303 
     25 C          26.5864   24.9213    0.9516 C.2       3 UNK         0.5044 
     26 O          27.2888   25.0345   -0.0568 O.2       3 UNK        -0.5152 
     27 CA         25.1767   24.3415    0.8140 C.3       3 UNK         0.0319 
     28 CB         24.1841   25.4026    0.3042 C.3       3 UNK        -0.2001 
     29 N          25.2723   23.2288   -0.1205 N.am      3 UNK        -0.4354 
     30 C          24.4006   22.2250   -0.2585 C.2       2 UNK         0.4964 
     31 O          23.3205   22.1599    0.3294 O.2       2 UNK        -0.5047 
     32 CA         24.8307   21.0811   -1.1933 C.3       2 UNK         0.0288 
     33 CB         24.4971   21.4170   -2.6562 C.3       2 UNK        -0.2113 
     34 N          26.2599   20.7694   -1.0733 N.am      2 UNK        -0.4145 
     35 C          26.8194   20.2038    0.0065 C.2       1 UNK         0.5006 
     36 O          26.1756   19.8132    0.9837 O.2       1 UNK        -0.5103 
     37 C          29.8858   30.1873    1.9350 C.2       5 UNK         0.5055 
     38 O          30.6956   31.0849    1.6917 O.2       5 UNK        -0.5220 
     39 N          29.2520   30.0852    3.1110 N.am      6 UNK        -0.4450 
     40 CA         29.5499   30.8528    4.3253 C.3       6 UNK         0.0367 
     41 CB         28.6817   30.3299    5.4791 C.3       6 UNK        -0.1929 
     42 C          29.4115   32.3784    4.1840 C.2       6 UNK         0.5070 
     43 O          30.0579   33.1110    4.9304 O.2       6 UNK        -0.5237 
     44 N          28.6165   32.8363    3.2085 N.am      7 UNK        -0.4739 
     45 CA         28.4783   34.2476    2.8404 C.3       7 UNK         0.0276 
     46 CB         27.2982   34.3960    1.8662 C.3       7 UNK        -0.1927 
     47 C          29.7551   34.8658    2.2345 C.2       7 UNK         0.5013 
     48 O          29.8925   36.0894    2.2742 O.2       7 UNK        -0.5193 
     49 N          30.6486   34.0317    1.6822 N.am      8 UNK        -0.4253 
     50 CA         31.9005   34.4502    1.0468 C.3       8 UNK         0.0242 
     51 CB         31.8450   34.1098   -0.4524 C.3       8 UNK        -0.2000 
     52 C          33.1251   33.7931    1.6990 C.2       8 UNK         0.4948 
     53 O          34.1220   34.4769    1.9328 O.2       8 UNK        -0.5275 
     54 N          33.0429   32.4842    1.9695 N.am      9 UNK        -0.4246 
     55 CA         34.1478   31.6601    2.4649 C.3       9 UNK         0.0261 
     56 CB         33.9846   30.2389    1.8982 C.3       9 UNK        -0.1959 
     57 C          34.2415   31.6055    3.9984 C.2       9 UNK         0.5033 
     58 O          35.1903   31.0059    4.5072 O.2       9 UNK        -0.5390 
     59 N          33.2544   32.1705    4.7112 N.am      10 UNK        -0.4215 
     60 CA         33.0494   32.1544    6.1698 C.3       10 UNK         0.0240 
     61 CB         34.2305   32.7923    6.9285 C.3       10 UNK        -0.1982 
     62 C          32.7004   30.7657    6.7385 C.2       10 UNK         0.4970 
     63 O          31.7530   30.6608    7.5172 O.2       10 UNK        -0.4916 
     64 N          33.4558   29.7378    6.3328 N.am      11 UNK        -0.4279 
     65 CA         33.2958   28.3181    6.6914 C.3       11 UNK         0.1003 
     66 C          33.5209   27.9942    8.2012 C.2       11 UNK         0.5709 
     67 N          34.1691   28.8594    8.9725 N.am      11 UNK        -0.7358 
     68 O          33.1386   26.9281    8.6785 O.2       11 UNK        -0.4999 
     69 C69        31.9873   27.6941    6.1235 C.3       12 UNK        -0.0954 
     70 S70        31.8639   27.8064    4.3058 S.3       12 UNK        -0.2268 
     71 C71        32.8327   26.3511    3.7919 C.3       12 UNK         0.0203 
     72 H72        29.6746   16.3843   -2.3247 H         1 UNK         0.0888 
     73 H73        29.1215   16.1242   -0.6694 H         1 UNK         0.0888 
     74 H74        27.9751   16.0246   -2.0075 H         1 UNK         0.0888 
     75 H75        28.8836   18.0315    0.4794 H         1 UNK         0.3017 
     76 H76        28.7648   20.6142   -0.8297 H         1 UNK         0.0873 
     77 H77        30.0246   20.0186    1.3721 H         1 UNK         0.0745 
     78 H78        28.4914   20.0979    2.1773 H         1 UNK         0.0745 
     79 H79        31.2357   22.0415    0.1519 H         1 UNK         0.0705 
     80 H80        31.5338   21.8745    1.8646 H         1 UNK         0.0705 
     81 H81        31.8107   23.8639    3.3111 H         1 UNK         0.1334 
     82 H82        32.8294   27.5267    1.3362 H         1 UNK         0.1417 
     83 H83        31.1287   24.2816   -0.8999 H         1 UNK         0.1562 
     84 H84        32.1972   26.1787   -2.0491 H         1 UNK         0.0748 
     85 H85        32.8875   27.5105   -1.1664 H         1 UNK         0.0748 
     86 H86        30.6106   30.0754   -0.8083 H         1 UNK         0.0940 
     87 H87        31.6693   29.1098    0.1646 H         1 UNK         0.0940 
     88 H88        28.6433   29.4047    0.3967 H         1 UNK         0.0703 
     89 H89        30.1502   27.1182    1.2637 H         1 UNK         0.3081 
     90 H90        29.0465   25.3231    1.9345 H         1 UNK         0.0719 
     91 H91        27.8320   26.2669    4.5934 H         1 UNK         0.0809 
     92 H92        28.5404   24.6772    4.2963 H         1 UNK         0.0809 
     93 H93        29.5458   26.1099    4.2385 H         1 UNK         0.0809 
     94 H94        26.3277   25.1806    2.9504 H         1 UNK         0.2990 
     95 H95        24.8453   23.9631    1.7835 H         1 UNK         0.0690 
     96 H96        23.1748   24.9992    0.2217 H         1 UNK         0.0788 
     97 H97        24.4735   25.7844   -0.6757 H         1 UNK         0.0788 
     98 H98        24.1386   26.2525    0.9863 H         1 UNK         0.0788 
     99 H99        26.1431   23.2046   -0.6368 H         1 UNK         0.2993 
    100 H100       24.2637   20.1916   -0.9091 H         1 UNK         0.0949 
    101 H101       25.0481   22.2901   -3.0085 H         1 UNK         0.0767 
    102 H102       24.7313   20.5823   -3.3174 H         1 UNK         0.0767 
    103 H103       23.4341   21.6332   -2.7731 H         1 UNK         0.0767 
    104 H104       26.8478   20.9983   -1.8627 H         1 UNK         0.3013 
    105 H105       28.5455   29.3600    3.1867 H         1 UNK         0.3121 
    106 H106       30.5936   30.6537    4.5739 H         1 UNK         0.0774 
    107 H107       28.9141   30.8522    6.4085 H         1 UNK         0.0815 
    108 H108       27.6185   30.4690    5.2798 H         1 UNK         0.0815 
    109 H109       28.8570   29.2685    5.6560 H         1 UNK         0.0815 
    110 H110       28.1215   32.1625    2.6423 H         1 UNK         0.2987 
    111 H111       28.2476   34.8101    3.7480 H         1 UNK         0.0949 
    112 H112       27.1452   35.4416    1.5948 H         1 UNK         0.0806 
    113 H113       27.4650   33.8412    0.9421 H         1 UNK         0.0806 
    114 H114       26.3684   34.0402    2.3104 H         1 UNK         0.0806 
    115 H115       30.4614   33.0341    1.7105 H         1 UNK         0.3010 
    116 H116       32.0336   35.5302    1.1402 H         1 UNK         0.0829 
    117 H117       31.0312   34.6407   -0.9468 H         1 UNK         0.0813 
    118 H118       32.7704   34.3967   -0.9539 H         1 UNK         0.0813 
    119 H119       31.6978   33.0421   -0.6211 H         1 UNK         0.0813 
    120 H120       32.1770   31.9854    1.7643 H         1 UNK         0.3038 
    121 H121       35.0930   32.0648    2.0967 H         1 UNK         0.0769 
    122 H122       34.8195   29.5997    2.1887 H         1 UNK         0.0811 
    123 H123       33.9476   30.2465    0.8088 H         1 UNK         0.0811 
    124 H124       33.0726   29.7672    2.2642 H         1 UNK         0.0811 
    125 H125       32.5158   32.6207    4.1881 H         1 UNK         0.3204 
    126 H126       32.1821   32.7890    6.3525 H         1 UNK         0.0748 
    127 H127       34.0062   32.8762    7.9927 H         1 UNK         0.0771 
    128 H128       35.1460   32.2074    6.8380 H         1 UNK         0.0771 
    129 H129       34.4383   33.7975    6.5617 H         1 UNK         0.0771 
    130 H130       34.2211   29.9549    5.6989 H         1 UNK         0.2980 
    131 H131       34.1240   27.8124    6.1946 H         1 UNK         0.0545 
    132 H132       34.3213   28.6372    9.9436 H         1 UNK         0.3459 
    133 H133       34.5013   29.7313    8.5940 H         1 UNK         0.3459 
    134 H134       31.1150   28.1892    6.5522 H         1 UNK         0.0616 
    135 H135       31.8961   26.6443    6.4057 H         1 UNK         0.0616 
    136 H136       32.7932   25.5880    4.5702 H         1 UNK         0.0634 
    137 H137       33.8805   26.6392    3.6974 H         1 UNK         0.0634 
@<TRIPOS>BOND
     1    1    2 1    
     2    1   72 1    
     3    1   73 1    
     4    1   74 1    
     5    2    3 2    
     6    2    4 am   BACKBONE|DICT|INTERRES
     7    4    5 1    
     8    4   75 1    
     9    5    6 1    
    10    5   35 1    
    11    5   76 1    
    12    6    7 1    
    13    6   77 1    
    14    6   78 1    
    15    7    8 1    
    16    8    9 1    
    17    8   79 1    
    18    8   80 1    
    19    9   10 ar   
    20    9   14 ar   
    21   10   11 ar   
    22   10   81 1    
    23   11   12 ar   
    24   11   71 1    
    25   12   13 ar   
    26   12   82 1    
    27   13   14 ar   
    28   13   15 1    
    29   14   83 1    
    30   15   16 1    
    31   15   84 1    
    32   15   85 1    
    33   16   17 1    
    34   17   18 1    
    35   17   86 1    
    36   17   87 1    
    37   18   19 1    
    38   18   37 1    
    39   18   88 1    
    40   19   20 am   BACKBONE|DICT|INTERRES
    41   19   89 1    
    42   20   21 2    
    43   20   22 1    
    44   22   23 1    
    45   22   24 1    
    46   22   90 1    
    47   23   91 1    
    48   23   92 1    
    49   23   93 1    
    50   24   25 am   BACKBONE|DICT|INTERRES
    51   24   94 1    
    52   25   26 2    
    53   25   27 1    
    54   27   28 1    
    55   27   29 1    
    56   27   95 1    
    57   28   96 1    
    58   28   97 1    
    59   28   98 1    
    60   29   30 am   BACKBONE|DICT|INTERRES
    61   29   99 1    
    62   30   31 2    
    63   30   32 1    
    64   32   33 1    
    65   32   34 1    
    66   32  100 1    
    67   33  101 1    
    68   33  102 1    
    69   33  103 1    
    70   34   35 am   BACKBONE|DICT|INTERRES
    71   34  104 1    
    72   35   36 2    
    73   37   38 2    
    74   37   39 am   BACKBONE|DICT|INTERRES
    75   39   40 1    
    76   39  105 1    
    77   40   41 1    
    78   40   42 1    
    79   40  106 1    
    80   41  107 1    
    81   41  108 1    
    82   41  109 1    
    83   42   43 2    
    84   42   44 am   BACKBONE|DICT|INTERRES
    85   44   45 1    
    86   44  110 1    
    87   45   46 1    
    88   45   47 1    
    89   45  111 1    
    90   46  112 1    
    91   46  113 1    
    92   46  114 1    
    93   47   48 2    
    94   47   49 am   BACKBONE|DICT|INTERRES
    95   49   50 1    
    96   49  115 1    
    97   50   51 1    
    98   50   52 1    
    99   50  116 1    
   100   51  117 1    
   101   51  118 1    
   102   51  119 1    
   103   52   53 2    
   104   52   54 am   BACKBONE|DICT|INTERRES
   105   54   55 1    
   106   54  120 1    
   107   55   56 1    
   108   55   57 1    
   109   55  121 1    
   110   56  122 1    
   111   56  123 1    
   112   56  124 1    
   113   57   58 2    
   114   57   59 am   BACKBONE|DICT|INTERRES
   115   59   60 1    
   116   59  125 1    
   117   60   61 1    
   118   60   62 1    
   119   60  126 1    
   120   61  127 1    
   121   61  128 1    
   122   61  129 1    
   123   62   63 2    
   124   62   64 am   BACKBONE|DICT|INTERRES
   125   64   65 1    
   126   64  130 1    
   127   65   66 1    
   128   65   69 1    
   129   65  131 1    
   130   66   67 am   BACKBONE|DICT|INTERRES
   131   66   68 2    
   132   67  132 1    
   133   67  133 1    
   134   69   70 1    
   135   69  134 1    
   136   69  135 1    
   137   70   71 1    
   138   71  136 1    
   139   71  137 1    
@<TRIPOS>SUBSTRUCTURE
     1 UNK         1 GROUP             0       ****    0 ROOT    
