@<TRIPOS>MOLECULE
3R136
137   139    1
SMALL
USER_CHARGES


@<TRIPOS>ATOM
      1 CA         26.4162   16.4745    2.9068 C.3       0 UNK        -0.1979 
      2 C          27.0684   17.3087    1.8143 C.2       0 UNK         0.4864 
      3 O          27.1981   16.8414    0.6822 O.2       0 UNK        -0.5359 
      4 N          27.4759   18.5420    2.1427 N.am      1 UNK        -0.4318 
      5 CA         28.1264   19.4874    1.2252 C.3       1 UNK         0.0824 
      6 C6         28.9939   20.5200    1.9915 C.3       12 UNK        -0.0944 
      7 S7         28.0732   21.5206    3.2145 S.3       12 UNK        -0.2672 
      8 C8         27.8513   23.0933    2.3223 C.3       12 UNK         0.0333 
      9 C9         29.1361   23.9067    2.2580 C.ar      12 UNK        -0.0807 
     10 C10        29.5365   24.6694    3.3593 C.ar      12 UNK        -0.0894 
     11 C11        30.7057   25.4350    3.3094 C.ar      12 UNK        -0.0804 
     12 C12        31.4827   25.4161    2.1469 C.ar      12 UNK        -0.0824 
     13 C13        31.0792   24.6827    1.0284 C.ar      12 UNK        -0.0762 
     14 C14        29.9025   23.9308    1.0882 C.ar      12 UNK        -0.0782 
     15 C15        31.9257   24.6920   -0.2366 C.3       12 UNK         0.0230 
     16 S16        31.2695   25.8237   -1.5055 S.3       12 UNK        -0.2608 
     17 C17        31.5148   27.4708   -0.7511 C.3       12 UNK        -0.0989 
     18 CA         30.1782   28.2515   -0.6116 C.3       5 UNK         0.0716 
     19 N          29.1952   27.5296    0.1991 N.am      5 UNK        -0.4135 
     20 C          27.8813   27.4804   -0.0490 C.2       4 UNK         0.5031 
     21 O          27.3285   28.0216   -1.0111 O.2       4 UNK        -0.5229 
     22 CA         27.0346   26.7169    0.9821 C.3       4 UNK         0.0329 
     23 CB         26.5383   27.6653    2.0848 C.3       4 UNK        -0.2001 
     24 N          25.8894   26.0363    0.3743 N.am      4 UNK        -0.4303 
     25 C          25.9804   25.0027   -0.4726 C.2       3 UNK         0.5044 
     26 O          27.0439   24.4987   -0.8399 O.2       3 UNK        -0.5152 
     27 CA         24.6512   24.4478   -1.0140 C.3       3 UNK         0.0319 
     28 CB         24.3580   25.0174   -2.4115 C.3       3 UNK        -0.2001 
     29 N          24.6571   22.9843   -1.0820 N.am      3 UNK        -0.4354 
     30 C          24.7004   22.1708   -0.0180 C.2       2 UNK         0.4964 
     31 O          24.6821   22.5725    1.1472 O.2       2 UNK        -0.5047 
     32 CA         24.7291   20.6514   -0.2733 C.3       2 UNK         0.0288 
     33 CB         24.7126   20.2390   -1.7649 C.3       2 UNK        -0.2113 
     34 N          25.8355   20.0178    0.4531 N.am      2 UNK        -0.4145 
     35 C          27.1524   20.1717    0.2363 C.2       1 UNK         0.5006 
     36 O          27.6222   20.8278   -0.6948 O.2       1 UNK        -0.5103 
     37 C          30.3257   29.6900   -0.0637 C.2       5 UNK         0.5055 
     38 O          29.3148   30.3693    0.1339 O.2       5 UNK        -0.5220 
     39 N          31.5620   30.1556    0.1686 N.am      6 UNK        -0.4450 
     40 CA         31.8955   31.5091    0.6289 C.3       6 UNK         0.0367 
     41 CB         33.3715   31.7978    0.2943 C.3       6 UNK        -0.1929 
     42 C          31.5825   31.7392    2.1217 C.2       6 UNK         0.5070 
     43 O          32.4685   32.1266    2.8853 O.2       6 UNK        -0.5237 
     44 N          30.3268   31.5100    2.5245 N.am      7 UNK        -0.4739 
     45 CA         29.8313   31.6249    3.9026 C.3       7 UNK         0.0276 
     46 CB         28.3541   31.2076    3.9485 C.3       7 UNK        -0.1927 
     47 C          30.0233   33.0179    4.5293 C.2       7 UNK         0.5013 
     48 O          30.2437   33.1105    5.7369 O.2       7 UNK        -0.5193 
     49 N          30.0145   34.0668    3.6936 N.am      8 UNK        -0.4253 
     50 CA         30.3425   35.4481    4.0652 C.3       8 UNK         0.0242 
     51 CB         30.0486   36.3725    2.8726 C.3       8 UNK        -0.2000 
     52 C          31.7961   35.6386    4.5461 C.2       8 UNK         0.4948 
     53 O          32.0596   36.5817    5.2925 O.2       8 UNK        -0.5275 
     54 N          32.6993   34.7380    4.1353 N.am      9 UNK        -0.4246 
     55 CA         34.0931   34.6566    4.5740 C.3       9 UNK         0.0261 
     56 CB         34.9978   34.6369    3.3276 C.3       9 UNK        -0.1959 
     57 C          34.3195   33.4135    5.4574 C.2       9 UNK         0.5033 
     58 O          35.4518   32.9335    5.5446 O.2       9 UNK        -0.5390 
     59 N          33.2431   32.8833    6.0645 N.am      10 UNK        -0.4215 
     60 CA         33.1929   31.6758    6.9008 C.3       10 UNK         0.0240 
     61 CB         33.9139   31.9195    8.2438 C.3       10 UNK        -0.1982 
     62 C          33.6857   30.4016    6.1826 C.2       10 UNK         0.4970 
     63 O          34.2066   29.4974    6.8381 O.2       10 UNK        -0.4916 
     64 N          33.5250   30.3634    4.8524 N.am      11 UNK        -0.4279 
     65 CA         34.0156   29.3211    3.9382 C.3       11 UNK         0.1003 
     66 C          35.5692   29.2614    3.8139 C.2       11 UNK         0.5709 
     67 N          36.3124   30.2773    4.2414 N.am      11 UNK        -0.7358 
     68 O          36.1144   28.2944    3.2870 O.2       11 UNK        -0.4999 
     69 C69        33.3617   27.9309    4.1805 C.3       12 UNK        -0.0954 
     70 S70        31.5369   27.9840    4.1067 S.3       12 UNK        -0.2268 
     71 C71        31.1293   26.2555    4.5234 C.3       12 UNK         0.0203 
     72 H72        25.4029   16.1995    2.6151 H         1 UNK         0.0888 
     73 H73        26.9846   15.5591    3.0690 H         1 UNK         0.0888 
     74 H74        26.3626   17.0120    3.8535 H         1 UNK         0.0888 
     75 H75        27.3472   18.8798    3.0870 H         1 UNK         0.3017 
     76 H76        28.8113   18.9098    0.6002 H         1 UNK         0.0873 
     77 H77        29.7808   19.9924    2.5327 H         1 UNK         0.0745 
     78 H78        29.5212   21.1701    1.2929 H         1 UNK         0.0745 
     79 H79        27.0765   23.6761    2.8228 H         1 UNK         0.0705 
     80 H80        27.4738   22.8943    1.3195 H         1 UNK         0.0705 
     81 H81        28.9343   24.6612    4.2578 H         1 UNK         0.1334 
     82 H82        32.4001   25.9837    2.1055 H         1 UNK         0.1417 
     83 H83        29.5802   23.3685    0.2213 H         1 UNK         0.1562 
     84 H84        31.9626   23.6843   -0.6532 H         1 UNK         0.0748 
     85 H85        32.9584   24.9621   -0.0103 H         1 UNK         0.0748 
     86 H86        32.2058   28.0107   -1.4014 H         1 UNK         0.0940 
     87 H87        32.0146   27.3703    0.2124 H         1 UNK         0.0940 
     88 H88        29.7800   28.3675   -1.6220 H         1 UNK         0.0703 
     89 H89        29.5562   27.0572    1.0153 H         1 UNK         0.3081 
     90 H90        27.6603   25.9567    1.4455 H         1 UNK         0.0719 
     91 H91        27.3776   28.1433    2.5908 H         1 UNK         0.0809 
     92 H92        25.9060   28.4576    1.6817 H         1 UNK         0.0809 
     93 H93        25.9681   27.1300    2.8443 H         1 UNK         0.0809 
     94 H94        24.9773   26.4129    0.5871 H         1 UNK         0.2990 
     95 H95        23.8436   24.7475   -0.3424 H         1 UNK         0.0690 
     96 H96        23.3949   24.6727   -2.7885 H         1 UNK         0.0788 
     97 H97        25.1251   24.7303   -3.1322 H         1 UNK         0.0788 
     98 H98        24.3256   26.1077   -2.3893 H         1 UNK         0.0788 
     99 H99        24.7149   22.5725   -2.0017 H         1 UNK         0.2993 
    100 H100       23.8142   20.2624    0.1765 H         1 UNK         0.0949 
    101 H101       23.8088   20.5944   -2.2617 H         1 UNK         0.0767 
    102 H102       25.5690   20.6284   -2.3162 H         1 UNK         0.0767 
    103 H103       24.7234   19.1537   -1.8680 H         1 UNK         0.0767 
    104 H104       25.5675   19.4858    1.2686 H         1 UNK         0.3013 
    105 H105       32.3456   29.5404    0.0090 H         1 UNK         0.3121 
    106 H106       31.2868   32.2211    0.0675 H         1 UNK         0.0774 
    107 H107       34.0474   31.1303    0.8302 H         1 UNK         0.0815 
    108 H108       33.5667   31.6898   -0.7727 H         1 UNK         0.0815 
    109 H109       33.6411   32.8193    0.5662 H         1 UNK         0.0815 
    110 H110       29.6737   31.1749    1.8199 H         1 UNK         0.2987 
    111 H111       30.4027   30.9206    4.5110 H         1 UNK         0.0949 
    112 H112       28.2263   30.1775    3.6171 H         1 UNK         0.0806 
    113 H113       27.9607   31.2702    4.9642 H         1 UNK         0.0806 
    114 H114       27.7339   31.8442    3.3164 H         1 UNK         0.0806 
    115 H115       29.8266   33.8884    2.7176 H         1 UNK         0.3010 
    116 H116       29.6879   35.7330    4.8916 H         1 UNK         0.0829 
    117 H117       30.6618   36.1217    2.0060 H         1 UNK         0.0813 
    118 H118       30.2539   37.4137    3.1261 H         1 UNK         0.0813 
    119 H119       29.0018   36.3153    2.5732 H         1 UNK         0.0813 
    120 H120       32.3941   33.9672    3.5474 H         1 UNK         0.3038 
    121 H121       34.3572   35.5280    5.1762 H         1 UNK         0.0769 
    122 H122       34.8198   35.5061    2.6944 H         1 UNK         0.0811 
    123 H123       34.8311   33.7427    2.7254 H         1 UNK         0.0811 
    124 H124       36.0523   34.6517    3.6058 H         1 UNK         0.0811 
    125 H125       32.3438   33.3265    5.9103 H         1 UNK         0.3204 
    126 H126       32.1381   31.5036    7.1196 H         1 UNK         0.0748 
    127 H127       34.9892   32.0407    8.1085 H         1 UNK         0.0771 
    128 H128       33.5354   32.8129    8.7405 H         1 UNK         0.0771 
    129 H129       33.7641   31.0835    8.9282 H         1 UNK         0.0771 
    130 H130       33.1107   31.1627    4.3821 H         1 UNK         0.2980 
    131 H131       33.6922   29.6440    2.9490 H         1 UNK         0.0545 
    132 H132       35.8911   31.0909    4.6754 H         1 UNK         0.3459 
    133 H133       37.3134   30.2272    4.1416 H         1 UNK         0.3459 
    134 H134       33.7103   27.2154    3.4359 H         1 UNK         0.0616 
    135 H135       33.6641   27.5299    5.1487 H         1 UNK         0.0616 
    136 H136       31.9782   25.7694    5.0057 H         1 UNK         0.0634 
    137 H137       30.3290   26.2747    5.2646 H         1 UNK         0.0634 
@<TRIPOS>BOND
     1    1    2 1    
     2    1   72 1    
     3    1   73 1    
     4    1   74 1    
     5    2    3 2    
     6    2    4 am   BACKBONE|DICT|INTERRES
     7    4    5 1    
     8    4   75 1    
     9    5    6 1    
    10    5   35 1    
    11    5   76 1    
    12    6    7 1    
    13    6   77 1    
    14    6   78 1    
    15    7    8 1    
    16    8    9 1    
    17    8   79 1    
    18    8   80 1    
    19    9   10 ar   
    20    9   14 ar   
    21   10   11 ar   
    22   10   81 1    
    23   11   12 ar   
    24   11   71 1    
    25   12   13 ar   
    26   12   82 1    
    27   13   14 ar   
    28   13   15 1    
    29   14   83 1    
    30   15   16 1    
    31   15   84 1    
    32   15   85 1    
    33   16   17 1    
    34   17   18 1    
    35   17   86 1    
    36   17   87 1    
    37   18   19 1    
    38   18   37 1    
    39   18   88 1    
    40   19   20 am   BACKBONE|DICT|INTERRES
    41   19   89 1    
    42   20   21 2    
    43   20   22 1    
    44   22   23 1    
    45   22   24 1    
    46   22   90 1    
    47   23   91 1    
    48   23   92 1    
    49   23   93 1    
    50   24   25 am   BACKBONE|DICT|INTERRES
    51   24   94 1    
    52   25   26 2    
    53   25   27 1    
    54   27   28 1    
    55   27   29 1    
    56   27   95 1    
    57   28   96 1    
    58   28   97 1    
    59   28   98 1    
    60   29   30 am   BACKBONE|DICT|INTERRES
    61   29   99 1    
    62   30   31 2    
    63   30   32 1    
    64   32   33 1    
    65   32   34 1    
    66   32  100 1    
    67   33  101 1    
    68   33  102 1    
    69   33  103 1    
    70   34   35 am   BACKBONE|DICT|INTERRES
    71   34  104 1    
    72   35   36 2    
    73   37   38 2    
    74   37   39 am   BACKBONE|DICT|INTERRES
    75   39   40 1    
    76   39  105 1    
    77   40   41 1    
    78   40   42 1    
    79   40  106 1    
    80   41  107 1    
    81   41  108 1    
    82   41  109 1    
    83   42   43 2    
    84   42   44 am   BACKBONE|DICT|INTERRES
    85   44   45 1    
    86   44  110 1    
    87   45   46 1    
    88   45   47 1    
    89   45  111 1    
    90   46  112 1    
    91   46  113 1    
    92   46  114 1    
    93   47   48 2    
    94   47   49 am   BACKBONE|DICT|INTERRES
    95   49   50 1    
    96   49  115 1    
    97   50   51 1    
    98   50   52 1    
    99   50  116 1    
   100   51  117 1    
   101   51  118 1    
   102   51  119 1    
   103   52   53 2    
   104   52   54 am   BACKBONE|DICT|INTERRES
   105   54   55 1    
   106   54  120 1    
   107   55   56 1    
   108   55   57 1    
   109   55  121 1    
   110   56  122 1    
   111   56  123 1    
   112   56  124 1    
   113   57   58 2    
   114   57   59 am   BACKBONE|DICT|INTERRES
   115   59   60 1    
   116   59  125 1    
   117   60   61 1    
   118   60   62 1    
   119   60  126 1    
   120   61  127 1    
   121   61  128 1    
   122   61  129 1    
   123   62   63 2    
   124   62   64 am   BACKBONE|DICT|INTERRES
   125   64   65 1    
   126   64  130 1    
   127   65   66 1    
   128   65   69 1    
   129   65  131 1    
   130   66   67 am   BACKBONE|DICT|INTERRES
   131   66   68 2    
   132   67  132 1    
   133   67  133 1    
   134   69   70 1    
   135   69  134 1    
   136   69  135 1    
   137   70   71 1    
   138   71  136 1    
   139   71  137 1    
@<TRIPOS>SUBSTRUCTURE
     1 UNK         1 GROUP             0       ****    0 ROOT    
