@<TRIPOS>MOLECULE
3R136
137   139    1
SMALL
USER_CHARGES


@<TRIPOS>ATOM
      1 CA         28.5279   23.2466   -0.8506 C.3       0 UNK        -0.1979 
      2 C          28.0406   22.8670    0.5393 C.2       0 UNK         0.4864 
      3 O          27.8901   21.6774    0.8173 O.2       0 UNK        -0.5359 
      4 N          27.7938   23.8675    1.3984 N.am      1 UNK        -0.4318 
      5 CA         27.2358   23.7456    2.7575 C.3       1 UNK         0.0824 
      6 C6         28.1883   23.0301    3.7561 C.3       12 UNK        -0.0944 
      7 S7         29.6843   24.0203    4.0765 S.3       12 UNK        -0.2672 
      8 C8         30.9558   23.1268    3.1311 C.3       12 UNK         0.0333 
      9 C9         31.9274   24.1027    2.4860 C.ar      12 UNK        -0.0807 
     10 C10        32.8948   24.7520    3.2578 C.ar      12 UNK        -0.0894 
     11 C11        33.7650   25.6797    2.6754 C.ar      12 UNK        -0.0804 
     12 C12        33.6738   25.9399    1.3034 C.ar      12 UNK        -0.0824 
     13 C13        32.7285   25.2751    0.5145 C.ar      12 UNK        -0.0762 
     14 C14        31.8569   24.3614    1.1150 C.ar      12 UNK        -0.0782 
     15 C15        32.6836   25.5056   -0.9924 C.3       12 UNK         0.0230 
     16 S16        31.0240   25.9435   -1.6045 S.3       12 UNK        -0.2608 
     17 C17        30.8683   27.6695   -1.0271 C.3       12 UNK        -0.0989 
     18 CA         29.4075   28.1542   -0.8237 C.3       5 UNK         0.0716 
     19 N          28.5670   27.8860   -1.9824 N.am      5 UNK        -0.4135 
     20 C          28.3131   28.7186   -2.9966 C.2       4 UNK         0.5031 
     21 O          28.8155   29.8379   -3.1066 O.2       4 UNK        -0.5229 
     22 CA         27.3285   28.2240   -4.0780 C.3       4 UNK         0.0329 
     23 CB         28.0857   27.8605   -5.3660 C.3       4 UNK        -0.2001 
     24 N          26.5240   27.0702   -3.6562 N.am      4 UNK        -0.4303 
     25 C          25.5722   27.1041   -2.7131 C.2       3 UNK         0.5044 
     26 O          25.1966   28.1403   -2.1626 O.2       3 UNK        -0.5152 
     27 CA         24.9824   25.7636   -2.2537 C.3       3 UNK         0.0319 
     28 CB         25.5593   24.5222   -2.9714 C.3       3 UNK        -0.2001 
     29 N          25.2075   25.6723   -0.8139 N.am      3 UNK        -0.4354 
     30 C          24.4754   24.9575    0.0436 C.2       2 UNK         0.4964 
     31 O          23.5416   24.2206   -0.2819 O.2       2 UNK        -0.5047 
     32 CA         24.8323   25.1175    1.5246 C.3       2 UNK         0.0288 
     33 CB         23.8248   26.0427    2.2263 C.3       2 UNK        -0.2113 
     34 N          24.8031   23.8024    2.1664 N.am      2 UNK        -0.4145 
     35 C          25.8153   23.1243    2.7297 C.2       1 UNK         0.5006 
     36 O          25.6325   22.0081    3.2169 O.2       1 UNK        -0.5103 
     37 C          28.7349   27.5277    0.4099 C.2       5 UNK         0.5055 
     38 O          27.9639   26.5672    0.2791 O.2       5 UNK        -0.5220 
     39 N          29.0375   28.0832    1.5862 N.am      6 UNK        -0.4450 
     40 CA         28.5906   27.6051    2.8861 C.3       6 UNK         0.0367 
     41 CB         27.1526   28.0755    3.1705 C.3       6 UNK        -0.1929 
     42 C          29.5583   28.1356    3.9461 C.2       6 UNK         0.5070 
     43 O          30.0672   29.2527    3.8056 O.2       6 UNK        -0.5237 
     44 N          29.7845   27.3331    4.9886 N.am      7 UNK        -0.4739 
     45 CA         30.6260   27.6879    6.1268 C.3       7 UNK         0.0276 
     46 CB         31.1416   26.3973    6.7845 C.3       7 UNK        -0.1927 
     47 C          29.8450   28.5346    7.1494 C.2       7 UNK         0.5013 
     48 O          28.6434   28.3168    7.3076 O.2       7 UNK        -0.5193 
     49 N          30.4873   29.4586    7.8793 N.am      8 UNK        -0.4253 
     50 CA         31.8835   29.8984    7.7493 C.3       8 UNK         0.0242 
     51 CB         32.3589   30.4219    9.1145 C.3       8 UNK        -0.2000 
     52 C          32.0742   30.9869    6.6740 C.2       8 UNK         0.4948 
     53 O          33.2180   31.3274    6.3722 O.2       8 UNK        -0.5275 
     54 N          30.9676   31.5223    6.1355 N.am      9 UNK        -0.4246 
     55 CA         30.8981   32.6843    5.2426 C.3       9 UNK         0.0261 
     56 CB         29.4364   32.9137    4.8232 C.3       9 UNK        -0.1959 
     57 C          31.8069   32.6174    4.0046 C.2       9 UNK         0.5033 
     58 O          32.4837   33.6021    3.7043 O.2       9 UNK        -0.5390 
     59 N          31.8177   31.4678    3.3184 N.am      10 UNK        -0.4215 
     60 CA         32.6728   31.2312    2.1517 C.3       10 UNK         0.0240 
     61 CB         32.0227   30.1583    1.2664 C.3       10 UNK        -0.1982 
     62 C          34.1047   30.8076    2.5224 C.2       10 UNK         0.4970 
     63 O          34.9829   30.8650    1.6605 O.2       10 UNK        -0.4916 
     64 N          34.3095   30.3549    3.7637 N.am      11 UNK        -0.4279 
     65 CA         35.5685   29.7699    4.2442 C.3       11 UNK         0.1003 
     66 C          36.5236   30.8294    4.8517 C.2       11 UNK         0.5709 
     67 N          36.0088   31.8581    5.5148 N.am      11 UNK        -0.7358 
     68 O          37.7395   30.7201    4.7137 O.2       11 UNK        -0.4999 
     69 C69        35.3327   28.6038    5.2441 C.3       12 UNK        -0.0954 
     70 S70        33.9892   27.4758    4.7466 S.3       12 UNK        -0.2268 
     71 C71        34.8000   26.3995    3.5301 C.3       12 UNK         0.0203 
     72 H72        28.5053   24.3230   -1.0129 H         1 UNK         0.0888 
     73 H73        29.5487   22.8989   -1.0031 H         1 UNK         0.0888 
     74 H74        27.8977   22.7774   -1.6051 H         1 UNK         0.0888 
     75 H75        27.9438   24.8208    1.0767 H         1 UNK         0.3017 
     76 H76        27.1051   24.7559    3.1442 H         1 UNK         0.0873 
     77 H77        27.6937   22.8929    4.7196 H         1 UNK         0.0745 
     78 H78        28.4538   22.0290    3.4133 H         1 UNK         0.0745 
     79 H79        31.4920   22.4504    3.7982 H         1 UNK         0.0705 
     80 H80        30.4901   22.5020    2.3680 H         1 UNK         0.0705 
     81 H81        32.9553   24.5531    4.3190 H         1 UNK         0.1334 
     82 H82        34.3503   26.6497    0.8470 H         1 UNK         0.1417 
     83 H83        31.1226   23.8504    0.5099 H         1 UNK         0.1562 
     84 H84        33.0058   24.5903   -1.4905 H         1 UNK         0.0748 
     85 H85        33.3889   26.2819   -1.2934 H         1 UNK         0.0748 
     86 H86        31.3600   28.3095   -1.7613 H         1 UNK         0.0940 
     87 H87        31.4404   27.7840   -0.1064 H         1 UNK         0.0940 
     88 H88        29.4251   29.2330   -0.6542 H         1 UNK         0.0703 
     89 H89        28.0944   26.9949   -1.9456 H         1 UNK         0.3081 
     90 H90        26.6487   29.0494   -4.3002 H         1 UNK         0.0719 
     91 H91        28.7812   27.0353   -5.2066 H         1 UNK         0.0809 
     92 H92        27.3999   27.5748   -6.1638 H         1 UNK         0.0809 
     93 H93        28.6665   28.7093   -5.7301 H         1 UNK         0.0809 
     94 H94        26.7649   26.1777   -4.0633 H         1 UNK         0.2990 
     95 H95        23.9080   25.8103   -2.4439 H         1 UNK         0.0690 
     96 H96        25.1069   23.6044   -2.5952 H         1 UNK         0.0788 
     97 H97        26.6370   24.4343   -2.8363 H         1 UNK         0.0788 
     98 H98        25.3553   24.5549   -4.0425 H         1 UNK         0.0788 
     99 H99        25.9437   26.2703   -0.4529 H         1 UNK         0.2993 
    100 H100       25.8090   25.5904    1.5917 H         1 UNK         0.0949 
    101 H101       24.0812   26.1818    3.2769 H         1 UNK         0.0767 
    102 H102       23.8125   27.0303    1.7627 H         1 UNK         0.0767 
    103 H103       22.8093   25.6469    2.1792 H         1 UNK         0.0767 
    104 H104       23.9123   23.3314    2.0929 H         1 UNK         0.3013 
    105 H105       29.6805   28.8624    1.6416 H         1 UNK         0.3121 
    106 H106       28.6328   26.5159    2.8868 H         1 UNK         0.0774 
    107 H107       26.7951   27.6825    4.1231 H         1 UNK         0.0815 
    108 H108       27.0923   29.1633    3.2231 H         1 UNK         0.0815 
    109 H109       26.4582   27.7442    2.3999 H         1 UNK         0.0815 
    110 H110       29.3208   26.4365    5.0351 H         1 UNK         0.2987 
    111 H111       31.4700   28.2532    5.7370 H         1 UNK         0.0949 
    112 H112       30.3260   25.7932    7.1841 H         1 UNK         0.0806 
    113 H113       31.6923   25.7833    6.0722 H         1 UNK         0.0806 
    114 H114       31.8190   26.6204    7.6096 H         1 UNK         0.0806 
    115 H115       29.9460   29.9546    8.5731 H         1 UNK         0.3010 
    116 H116       32.5261   29.0553    7.4916 H         1 UNK         0.0829 
    117 H117       32.2787   29.6540    9.8843 H         1 UNK         0.0813 
    118 H118       33.4060   30.7265    9.0738 H         1 UNK         0.0813 
    119 H119       31.7814   31.2877    9.4414 H         1 UNK         0.0813 
    120 H120       30.0800   31.1467    6.4354 H         1 UNK         0.3038 
    121 H121       31.2200   33.5479    5.8281 H         1 UNK         0.0769 
    122 H122       29.0300   32.0526    4.2904 H         1 UNK         0.0811 
    123 H123       29.3495   33.7773    4.1621 H         1 UNK         0.0811 
    124 H124       28.7997   33.1055    5.6870 H         1 UNK         0.0811 
    125 H125       31.2090   30.7040    3.6129 H         1 UNK         0.3204 
    126 H126       32.7435   32.1514    1.5676 H         1 UNK         0.0748 
    127 H127       32.6054   29.9987    0.3580 H         1 UNK         0.0771 
    128 H128       31.9579   29.2012    1.7862 H         1 UNK         0.0771 
    129 H129       31.0203   30.4558    0.9601 H         1 UNK         0.0771 
    130 H130       33.5663   30.4198    4.4452 H         1 UNK         0.2980 
    131 H131       36.0896   29.3409    3.3862 H         1 UNK         0.0545 
    132 H132       35.0106   31.8923    5.6954 H         1 UNK         0.3459 
    133 H133       36.6202   32.5547    5.9089 H         1 UNK         0.3459 
    134 H134       35.0634   28.9959    6.2269 H         1 UNK         0.0616 
    135 H135       36.2488   28.0279    5.3861 H         1 UNK         0.0616 
    136 H136       35.4646   26.9967    2.9044 H         1 UNK         0.0634 
    137 H137       35.4244   25.6710    4.0487 H         1 UNK         0.0634 
@<TRIPOS>BOND
     1    1    2 1    
     2    1   72 1    
     3    1   73 1    
     4    1   74 1    
     5    2    3 2    
     6    2    4 am   BACKBONE|DICT|INTERRES
     7    4    5 1    
     8    4   75 1    
     9    5    6 1    
    10    5   35 1    
    11    5   76 1    
    12    6    7 1    
    13    6   77 1    
    14    6   78 1    
    15    7    8 1    
    16    8    9 1    
    17    8   79 1    
    18    8   80 1    
    19    9   10 ar   
    20    9   14 ar   
    21   10   11 ar   
    22   10   81 1    
    23   11   12 ar   
    24   11   71 1    
    25   12   13 ar   
    26   12   82 1    
    27   13   14 ar   
    28   13   15 1    
    29   14   83 1    
    30   15   16 1    
    31   15   84 1    
    32   15   85 1    
    33   16   17 1    
    34   17   18 1    
    35   17   86 1    
    36   17   87 1    
    37   18   19 1    
    38   18   37 1    
    39   18   88 1    
    40   19   20 am   BACKBONE|DICT|INTERRES
    41   19   89 1    
    42   20   21 2    
    43   20   22 1    
    44   22   23 1    
    45   22   24 1    
    46   22   90 1    
    47   23   91 1    
    48   23   92 1    
    49   23   93 1    
    50   24   25 am   BACKBONE|DICT|INTERRES
    51   24   94 1    
    52   25   26 2    
    53   25   27 1    
    54   27   28 1    
    55   27   29 1    
    56   27   95 1    
    57   28   96 1    
    58   28   97 1    
    59   28   98 1    
    60   29   30 am   BACKBONE|DICT|INTERRES
    61   29   99 1    
    62   30   31 2    
    63   30   32 1    
    64   32   33 1    
    65   32   34 1    
    66   32  100 1    
    67   33  101 1    
    68   33  102 1    
    69   33  103 1    
    70   34   35 am   BACKBONE|DICT|INTERRES
    71   34  104 1    
    72   35   36 2    
    73   37   38 2    
    74   37   39 am   BACKBONE|DICT|INTERRES
    75   39   40 1    
    76   39  105 1    
    77   40   41 1    
    78   40   42 1    
    79   40  106 1    
    80   41  107 1    
    81   41  108 1    
    82   41  109 1    
    83   42   43 2    
    84   42   44 am   BACKBONE|DICT|INTERRES
    85   44   45 1    
    86   44  110 1    
    87   45   46 1    
    88   45   47 1    
    89   45  111 1    
    90   46  112 1    
    91   46  113 1    
    92   46  114 1    
    93   47   48 2    
    94   47   49 am   BACKBONE|DICT|INTERRES
    95   49   50 1    
    96   49  115 1    
    97   50   51 1    
    98   50   52 1    
    99   50  116 1    
   100   51  117 1    
   101   51  118 1    
   102   51  119 1    
   103   52   53 2    
   104   52   54 am   BACKBONE|DICT|INTERRES
   105   54   55 1    
   106   54  120 1    
   107   55   56 1    
   108   55   57 1    
   109   55  121 1    
   110   56  122 1    
   111   56  123 1    
   112   56  124 1    
   113   57   58 2    
   114   57   59 am   BACKBONE|DICT|INTERRES
   115   59   60 1    
   116   59  125 1    
   117   60   61 1    
   118   60   62 1    
   119   60  126 1    
   120   61  127 1    
   121   61  128 1    
   122   61  129 1    
   123   62   63 2    
   124   62   64 am   BACKBONE|DICT|INTERRES
   125   64   65 1    
   126   64  130 1    
   127   65   66 1    
   128   65   69 1    
   129   65  131 1    
   130   66   67 am   BACKBONE|DICT|INTERRES
   131   66   68 2    
   132   67  132 1    
   133   67  133 1    
   134   69   70 1    
   135   69  134 1    
   136   69  135 1    
   137   70   71 1    
   138   71  136 1    
   139   71  137 1    
@<TRIPOS>SUBSTRUCTURE
     1 UNK         1 GROUP             0       ****    0 ROOT    
