@<TRIPOS>MOLECULE
3R136
137   139    1
SMALL
USER_CHARGES


@<TRIPOS>ATOM
      1 CA         28.6240   23.1371   -4.0157 C.3       0 UNK        -0.1979 
      2 C          28.1934   23.7627   -2.6982 C.2       0 UNK         0.4864 
      3 O          27.0129   24.0688   -2.5222 O.2       0 UNK        -0.5359 
      4 N          29.1331   23.9316   -1.7560 N.am      1 UNK        -0.4318 
      5 CA         28.9177   24.5647   -0.4458 C.3       1 UNK         0.0824 
      6 C6         30.2459   24.8813    0.2839 C.3       12 UNK        -0.0944 
      7 S7         31.3274   23.4326    0.5563 S.3       12 UNK        -0.2672 
      8 C8         30.8746   22.8956    2.2416 C.3       12 UNK         0.0333 
      9 C9         31.0547   23.9910    3.2846 C.ar      12 UNK        -0.0807 
     10 C10        32.3289   24.4946    3.5646 C.ar      12 UNK        -0.0894 
     11 C11        32.4979   25.5017    4.5186 C.ar      12 UNK        -0.0804 
     12 C12        31.3845   25.9958    5.2021 C.ar      12 UNK        -0.0824 
     13 C13        30.1051   25.4997    4.9380 C.ar      12 UNK        -0.0762 
     14 C14        29.9473   24.4942    3.9774 C.ar      12 UNK        -0.0782 
     15 C15        28.9143   26.0191    5.7373 C.3       12 UNK         0.0230 
     16 S16        27.5033   26.5363    4.7064 S.3       12 UNK        -0.2608 
     17 C17        28.1090   28.0822    3.9424 C.3       12 UNK        -0.0989 
     18 CA         27.8831   28.1095    2.4072 C.3       5 UNK         0.0716 
     19 N          26.4792   27.8430    2.0580 N.am      5 UNK        -0.4135 
     20 C          26.0405   27.3798    0.8821 C.2       4 UNK         0.5031 
     21 O          26.7566   27.2432   -0.1134 O.2       4 UNK        -0.5229 
     22 CA         24.5571   27.0226    0.7788 C.3       4 UNK         0.0329 
     23 CB         23.7631   28.1683    0.1238 C.3       4 UNK        -0.2001 
     24 N          24.4701   25.8055   -0.0206 N.am      4 UNK        -0.4303 
     25 C          23.4206   24.9820   -0.1069 C.2       3 UNK         0.5044 
     26 O          22.3358   25.1844    0.4400 O.2       3 UNK        -0.5152 
     27 CA         23.6324   23.6974   -0.9248 C.3       3 UNK         0.0319 
     28 CB         23.5753   23.9902   -2.4331 C.3       3 UNK        -0.2001 
     29 N          24.9033   23.0468   -0.5908 N.am      3 UNK        -0.4354 
     30 C          25.1090   22.3441    0.5362 C.2       2 UNK         0.4964 
     31 O          24.2269   22.1143    1.3645 O.2       2 UNK        -0.5047 
     32 CA         26.5260   21.7958    0.7979 C.3       2 UNK         0.0288 
     33 CB         26.6310   20.3308    0.3442 C.3       2 UNK        -0.2113 
     34 N          27.5797   22.5743    0.1477 N.am      2 UNK        -0.4145 
     35 C          27.9127   23.8316    0.4731 C.2       1 UNK         0.5006 
     36 O          27.4445   24.4200    1.4473 O.2       1 UNK        -0.5103 
     37 C          28.4054   29.4125    1.7545 C.2       5 UNK         0.5055 
     38 O          28.8802   30.3152    2.4461 O.2       5 UNK        -0.5220 
     39 N          28.2970   29.4941    0.4227 N.am      6 UNK        -0.4450 
     40 CA         28.6921   30.6348   -0.4071 C.3       6 UNK         0.0367 
     41 CB         28.0971   30.4552   -1.8128 C.3       6 UNK        -0.1929 
     42 C          30.2138   30.8471   -0.4903 C.2       6 UNK         0.5070 
     43 O          30.6492   31.9410   -0.8512 O.2       6 UNK        -0.5237 
     44 N          31.0007   29.8203   -0.1417 N.am      7 UNK        -0.4739 
     45 CA         32.4669   29.8097   -0.1203 C.3       7 UNK         0.0276 
     46 CB         32.9410   28.3428   -0.1239 C.3       7 UNK        -0.1927 
     47 C          33.0661   30.6202    1.0513 C.2       7 UNK         0.5013 
     48 O          33.9242   30.1123    1.7698 O.2       7 UNK        -0.5193 
     49 N          32.6099   31.8688    1.2167 N.am      8 UNK        -0.4253 
     50 CA         32.9867   32.8276    2.2610 C.3       8 UNK         0.0242 
     51 CB         34.4715   33.2350    2.1331 C.3       8 UNK        -0.2000 
     52 C          32.6115   32.3546    3.6796 C.2       8 UNK         0.4948 
     53 O          33.4396   32.4316    4.5905 O.2       8 UNK        -0.5275 
     54 N          31.3586   31.9000    3.8438 N.am      9 UNK        -0.4246 
     55 CA         30.6980   31.5357    5.1039 C.3       9 UNK         0.0261 
     56 CB         30.4254   32.7942    5.9585 C.3       9 UNK        -0.1959 
     57 C          31.4361   30.4269    5.8738 C.2       9 UNK         0.5033 
     58 O          31.1849   29.2511    5.6214 O.2       9 UNK        -0.5390 
     59 N          32.3227   30.8175    6.7979 N.am      10 UNK        -0.4215 
     60 CA         33.1629   29.9225    7.5963 C.3       10 UNK         0.0240 
     61 CB         33.6100   30.6697    8.8647 C.3       10 UNK        -0.1982 
     62 C          34.3832   29.3689    6.8333 C.2       10 UNK         0.4970 
     63 O          35.0706   28.5045    7.3782 O.2       10 UNK        -0.4916 
     64 N          34.6453   29.8761    5.6201 N.am      11 UNK        -0.4279 
     65 CA         35.7833   29.5248    4.7504 C.3       11 UNK         0.1003 
     66 C          37.1534   30.0858    5.2387 C.2       11 UNK         0.5709 
     67 N          37.1866   31.0485    6.1533 N.am      11 UNK        -0.7358 
     68 O          38.2072   29.6680    4.7635 O.2       11 UNK        -0.4999 
     69 C69        35.8578   28.0135    4.3678 C.3       12 UNK        -0.0954 
     70 S70        34.3156   27.3682    3.6370 S.3       12 UNK        -0.2268 
     71 C71        33.8802   26.0581    4.8165 C.3       12 UNK         0.0203 
     72 H72        28.0671   22.2177   -4.1942 H         1 UNK         0.0888 
     73 H73        28.4222   23.8229   -4.8381 H         1 UNK         0.0888 
     74 H74        29.6873   22.8983   -4.0257 H         1 UNK         0.0888 
     75 H75        30.0824   23.6366   -1.9392 H         1 UNK         0.3017 
     76 H76        28.4553   25.5258   -0.6665 H         1 UNK         0.0873 
     77 H77        30.0562   25.3986    1.2253 H         1 UNK         0.0745 
     78 H78        30.8155   25.5944   -0.3139 H         1 UNK         0.0745 
     79 H79        29.8484   22.5263    2.2384 H         1 UNK         0.0705 
     80 H80        31.4989   22.0437    2.5142 H         1 UNK         0.0705 
     81 H81        33.1872   24.1111    3.0296 H         1 UNK         0.1334 
     82 H82        31.5191   26.7673    5.9472 H         1 UNK         0.1417 
     83 H83        28.9586   24.1067    3.7702 H         1 UNK         0.1562 
     84 H84        29.2062   26.8564    6.3738 H         1 UNK         0.0748 
     85 H85        28.5800   25.2272    6.4086 H         1 UNK         0.0748 
     86 H86        29.1717   28.1986    4.1646 H         1 UNK         0.0940 
     87 H87        27.6049   28.9219    4.4245 H         1 UNK         0.0940 
     88 H88        28.4821   27.2982    1.9869 H         1 UNK         0.0703 
     89 H89        25.8198   27.9435    2.8156 H         1 UNK         0.3081 
     90 H90        24.1632   26.8196    1.7769 H         1 UNK         0.0719 
     91 H91        24.1195   28.3772   -0.8858 H         1 UNK         0.0809 
     92 H92        22.7002   27.9349    0.0613 H         1 UNK         0.0809 
     93 H93        23.8574   29.0889    0.7011 H         1 UNK         0.0809 
     94 H94        25.3315   25.5637   -0.4958 H         1 UNK         0.2990 
     95 H95        22.8175   23.0097   -0.6876 H         1 UNK         0.0690 
     96 H96        23.6821   23.0766   -3.0182 H         1 UNK         0.0788 
     97 H97        24.3607   24.6799   -2.7445 H         1 UNK         0.0788 
     98 H98        22.6199   24.4405   -2.7057 H         1 UNK         0.0788 
     99 H99        25.6805   23.2167   -1.2222 H         1 UNK         0.2993 
    100 H100       26.6957   21.8355    1.8764 H         1 UNK         0.0949 
    101 H101       25.8754   19.7155    0.8350 H         1 UNK         0.0767 
    102 H102       26.4851   20.2296   -0.7321 H         1 UNK         0.0767 
    103 H103       27.6039   19.9066    0.5941 H         1 UNK         0.0767 
    104 H104       28.0212   22.1623   -0.6611 H         1 UNK         0.3013 
    105 H105       27.8516   28.7084   -0.0495 H         1 UNK         0.3121 
    106 H106       28.2635   31.5366    0.0354 H         1 UNK         0.0774 
    107 H107       28.3433   31.3031   -2.4536 H         1 UNK         0.0815 
    108 H108       28.4775   29.5562   -2.2997 H         1 UNK         0.0815 
    109 H109       27.0098   30.3827   -1.7773 H         1 UNK         0.0815 
    110 H110       30.5455   28.9747    0.1675 H         1 UNK         0.2987 
    111 H111       32.8251   30.2778   -1.0398 H         1 UNK         0.0949 
    112 H112       32.6285   27.8160    0.7793 H         1 UNK         0.0806 
    113 H113       32.5506   27.7984   -0.9839 H         1 UNK         0.0806 
    114 H114       34.0291   28.2824   -0.1732 H         1 UNK         0.0806 
    115 H115       31.9044   32.1798    0.5525 H         1 UNK         0.3010 
    116 H116       32.3901   33.7226    2.0778 H         1 UNK         0.0829 
    117 H117       34.7012   33.5900    1.1286 H         1 UNK         0.0813 
    118 H118       34.7143   34.0425    2.8249 H         1 UNK         0.0813 
    119 H119       35.1429   32.4058    2.3584 H         1 UNK         0.0813 
    120 H120       30.7794   31.7917    3.0210 H         1 UNK         0.3038 
    121 H121       29.7275   31.1175    4.8331 H         1 UNK         0.0769 
    122 H122       29.7486   33.4744    5.4413 H         1 UNK         0.0811 
    123 H123       31.3340   33.3514    6.1880 H         1 UNK         0.0811 
    124 H124       29.9506   32.5310    6.9049 H         1 UNK         0.0811 
    125 H125       32.4996   31.8084    6.8868 H         1 UNK         0.3204 
    126 H126       32.5604   29.0641    7.9011 H         1 UNK         0.0748 
    127 H127       32.7536   31.0082    9.4483 H         1 UNK         0.0771 
    128 H128       34.2038   30.0231    9.5125 H         1 UNK         0.0771 
    129 H129       34.2207   31.5415    8.6265 H         1 UNK         0.0771 
    130 H130       34.0549   30.6232    5.2696 H         1 UNK         0.2980 
    131 H131       35.5957   30.0709    3.8264 H         1 UNK         0.0545 
    132 H132       38.0765   31.4123    6.4552 H         1 UNK         0.3459 
    133 H133       36.3315   31.4201    6.5336 H         1 UNK         0.3459 
    134 H134       36.6425   27.8541    3.6266 H         1 UNK         0.0616 
    135 H135       36.1408   27.4099    5.2311 H         1 UNK         0.0616 
    136 H136       34.6258   25.2633    4.7672 H         1 UNK         0.0634 
    137 H137       33.9139   26.4555    5.8318 H         1 UNK         0.0634 
@<TRIPOS>BOND
     1    1    2 1    
     2    1   72 1    
     3    1   73 1    
     4    1   74 1    
     5    2    3 2    
     6    2    4 am   BACKBONE|DICT|INTERRES
     7    4    5 1    
     8    4   75 1    
     9    5    6 1    
    10    5   35 1    
    11    5   76 1    
    12    6    7 1    
    13    6   77 1    
    14    6   78 1    
    15    7    8 1    
    16    8    9 1    
    17    8   79 1    
    18    8   80 1    
    19    9   10 ar   
    20    9   14 ar   
    21   10   11 ar   
    22   10   81 1    
    23   11   12 ar   
    24   11   71 1    
    25   12   13 ar   
    26   12   82 1    
    27   13   14 ar   
    28   13   15 1    
    29   14   83 1    
    30   15   16 1    
    31   15   84 1    
    32   15   85 1    
    33   16   17 1    
    34   17   18 1    
    35   17   86 1    
    36   17   87 1    
    37   18   19 1    
    38   18   37 1    
    39   18   88 1    
    40   19   20 am   BACKBONE|DICT|INTERRES
    41   19   89 1    
    42   20   21 2    
    43   20   22 1    
    44   22   23 1    
    45   22   24 1    
    46   22   90 1    
    47   23   91 1    
    48   23   92 1    
    49   23   93 1    
    50   24   25 am   BACKBONE|DICT|INTERRES
    51   24   94 1    
    52   25   26 2    
    53   25   27 1    
    54   27   28 1    
    55   27   29 1    
    56   27   95 1    
    57   28   96 1    
    58   28   97 1    
    59   28   98 1    
    60   29   30 am   BACKBONE|DICT|INTERRES
    61   29   99 1    
    62   30   31 2    
    63   30   32 1    
    64   32   33 1    
    65   32   34 1    
    66   32  100 1    
    67   33  101 1    
    68   33  102 1    
    69   33  103 1    
    70   34   35 am   BACKBONE|DICT|INTERRES
    71   34  104 1    
    72   35   36 2    
    73   37   38 2    
    74   37   39 am   BACKBONE|DICT|INTERRES
    75   39   40 1    
    76   39  105 1    
    77   40   41 1    
    78   40   42 1    
    79   40  106 1    
    80   41  107 1    
    81   41  108 1    
    82   41  109 1    
    83   42   43 2    
    84   42   44 am   BACKBONE|DICT|INTERRES
    85   44   45 1    
    86   44  110 1    
    87   45   46 1    
    88   45   47 1    
    89   45  111 1    
    90   46  112 1    
    91   46  113 1    
    92   46  114 1    
    93   47   48 2    
    94   47   49 am   BACKBONE|DICT|INTERRES
    95   49   50 1    
    96   49  115 1    
    97   50   51 1    
    98   50   52 1    
    99   50  116 1    
   100   51  117 1    
   101   51  118 1    
   102   51  119 1    
   103   52   53 2    
   104   52   54 am   BACKBONE|DICT|INTERRES
   105   54   55 1    
   106   54  120 1    
   107   55   56 1    
   108   55   57 1    
   109   55  121 1    
   110   56  122 1    
   111   56  123 1    
   112   56  124 1    
   113   57   58 2    
   114   57   59 am   BACKBONE|DICT|INTERRES
   115   59   60 1    
   116   59  125 1    
   117   60   61 1    
   118   60   62 1    
   119   60  126 1    
   120   61  127 1    
   121   61  128 1    
   122   61  129 1    
   123   62   63 2    
   124   62   64 am   BACKBONE|DICT|INTERRES
   125   64   65 1    
   126   64  130 1    
   127   65   66 1    
   128   65   69 1    
   129   65  131 1    
   130   66   67 am   BACKBONE|DICT|INTERRES
   131   66   68 2    
   132   67  132 1    
   133   67  133 1    
   134   69   70 1    
   135   69  134 1    
   136   69  135 1    
   137   70   71 1    
   138   71  136 1    
   139   71  137 1    
@<TRIPOS>SUBSTRUCTURE
     1 UNK         1 GROUP             0       ****    0 ROOT    
