@<TRIPOS>MOLECULE
3R136
137   139    1
SMALL
USER_CHARGES


@<TRIPOS>ATOM
      1 CA         31.5761   25.2757   -2.0520 C.3       0 UNK        -0.1979 
      2 C          30.8576   24.5018   -0.9576 C.2       0 UNK         0.4864 
      3 O          30.1458   25.0995   -0.1496 O.2       0 UNK        -0.5359 
      4 N          31.0148   23.1715   -0.9341 N.am      1 UNK        -0.4318 
      5 CA         30.4439   22.2470    0.0561 C.3       1 UNK         0.0824 
      6 C6         31.2462   20.9182    0.0704 C.3       12 UNK        -0.0944 
      7 S7         31.1459   20.0294    1.6587 S.3       12 UNK        -0.2672 
      8 C8         32.5831   20.7061    2.5545 C.3       12 UNK         0.0333 
      9 C9         32.3156   22.1075    3.0876 C.ar      12 UNK        -0.0807 
     10 C10        33.0553   23.2037    2.6330 C.ar      12 UNK        -0.0894 
     11 C11        32.8195   24.4817    3.1523 C.ar      12 UNK        -0.0804 
     12 C12        31.8300   24.6592    4.1245 C.ar      12 UNK        -0.0824 
     13 C13        31.0590   23.5746    4.5657 C.ar      12 UNK        -0.0762 
     14 C14        31.3242   22.3027    4.0522 C.ar      12 UNK        -0.0782 
     15 C15        29.9427   23.7117    5.6016 C.3       12 UNK         0.0230 
     16 S16        29.2322   25.3802    5.7947 S.3       12 UNK        -0.2608 
     17 C17        28.5170   25.7115    4.1450 C.3       12 UNK        -0.0989 
     18 CA         28.7181   27.1918    3.7350 C.3       5 UNK         0.0716 
     19 N          28.6711   27.3799    2.2820 N.am      5 UNK        -0.4135 
     20 C          29.0513   28.5104    1.6655 C.2       4 UNK         0.5031 
     21 O          29.5648   29.4607    2.2558 O.2       4 UNK        -0.5229 
     22 CA         28.7305   28.6680    0.1680 C.3       4 UNK         0.0329 
     23 CB         29.9813   28.4793   -0.7013 C.3       4 UNK        -0.2001 
     24 N          27.6318   27.8079   -0.2871 N.am      4 UNK        -0.4303 
     25 C          26.3633   27.9689    0.1216 C.2       3 UNK         0.5044 
     26 O          26.0176   28.8617    0.8968 O.2       3 UNK        -0.5152 
     27 CA         25.3065   26.9600   -0.3614 C.3       3 UNK         0.0319 
     28 CB         24.5919   27.4996   -1.6101 C.3       3 UNK        -0.2001 
     29 N          25.7980   25.6038   -0.6322 N.am      3 UNK        -0.4354 
     30 C          26.4408   24.8051    0.2326 C.2       2 UNK         0.4964 
     31 O          26.8014   25.1671    1.3546 O.2       2 UNK        -0.5047 
     32 CA         26.7611   23.3733   -0.2302 C.3       2 UNK         0.0288 
     33 CB         26.3235   23.0579   -1.6807 C.3       2 UNK        -0.2113 
     34 N          28.1968   23.1946   -0.0728 N.am      2 UNK        -0.4145 
     35 C          28.9124   22.0679   -0.1136 C.2       1 UNK         0.5006 
     36 O          28.4201   20.9526   -0.2978 O.2       1 UNK        -0.5103 
     37 C          27.7309   28.1276    4.4757 C.2       5 UNK         0.5055 
     38 O          28.0190   28.5449    5.5973 O.2       5 UNK        -0.5220 
     39 N          26.5997   28.4679    3.8414 N.am      6 UNK        -0.4450 
     40 CA         25.6447   29.4431    4.3665 C.3       6 UNK         0.0367 
     41 CB         24.2345   29.1309    3.8381 C.3       6 UNK        -0.1929 
     42 C          26.0601   30.8785    4.0097 C.2       6 UNK         0.5070 
     43 O          25.9873   31.7581    4.8679 O.2       6 UNK        -0.5237 
     44 N          26.4644   31.0960    2.7498 N.am      7 UNK        -0.4739 
     45 CA         26.7563   32.4242    2.2057 C.3       7 UNK         0.0276 
     46 CB         26.6998   32.3755    0.6704 C.3       7 UNK        -0.1927 
     47 C          28.0916   33.0247    2.6781 C.2       7 UNK         0.5013 
     48 O          28.1348   34.2251    2.9519 O.2       7 UNK        -0.5193 
     49 N          29.1524   32.2076    2.7337 N.am      8 UNK        -0.4253 
     50 CA         30.5243   32.6473    3.0138 C.3       8 UNK         0.0242 
     51 CB         31.3892   32.4114    1.7628 C.3       8 UNK        -0.2000 
     52 C          31.1517   31.9457    4.2270 C.2       8 UNK         0.4948 
     53 O          32.0589   32.5177    4.8328 O.2       8 UNK        -0.5275 
     54 N          30.7106   30.7186    4.5428 N.am      9 UNK        -0.4246 
     55 CA         31.1731   29.8261    5.6203 C.3       9 UNK         0.0261 
     56 CB         31.0254   30.4681    7.0137 C.3       9 UNK        -0.1959 
     57 C          32.5853   29.2615    5.3985 C.2       9 UNK         0.5033 
     58 O          32.7709   28.0476    5.4777 O.2       9 UNK        -0.5390 
     59 N          33.5441   30.1409    5.0896 N.am      10 UNK        -0.4215 
     60 CA         34.9128   29.7974    4.6980 C.3       10 UNK         0.0240 
     61 CB         35.8150   31.0202    4.9344 C.3       10 UNK        -0.1982 
     62 C          35.0224   29.3203    3.2365 C.2       10 UNK         0.4970 
     63 O          36.0711   28.7950    2.8623 O.2       10 UNK        -0.4916 
     64 N          33.9625   29.5308    2.4414 N.am      11 UNK        -0.4279 
     65 CA         33.8586   29.2106    1.0065 C.3       11 UNK         0.1003 
     66 C          34.7751   30.0689    0.0804 C.2       11 UNK         0.5709 
     67 N          35.3263   31.1849    0.5438 N.am      11 UNK        -0.7358 
     68 O          34.9628   29.7437   -1.0896 O.2       11 UNK        -0.4999 
     69 C69        33.9568   27.6871    0.7071 C.3       12 UNK        -0.0954 
     70 S70        32.6586   26.7163    1.5426 S.3       12 UNK        -0.2268 
     71 C71        33.6341   25.6725    2.6668 C.3       12 UNK         0.0203 
     72 H72        30.8574   25.8390   -2.6464 H         1 UNK         0.0888 
     73 H73        32.2788   25.9802   -1.6089 H         1 UNK         0.0888 
     74 H74        32.1306   24.6182   -2.7211 H         1 UNK         0.0888 
     75 H75        31.5760   22.7372   -1.6527 H         1 UNK         0.3017 
     76 H76        30.5768   22.7245    1.0288 H         1 UNK         0.0873 
     77 H77        32.3016   21.1127   -0.1275 H         1 UNK         0.0745 
     78 H78        30.9226   20.2521   -0.7316 H         1 UNK         0.0745 
     79 H79        32.8092   20.0493    3.3957 H         1 UNK         0.0705 
     80 H80        33.4639   20.6878    1.9108 H         1 UNK         0.0705 
     81 H81        33.8189   23.0623    1.8804 H         1 UNK         0.1334 
     82 H82        31.6602   25.6514    4.5198 H         1 UNK         0.1417 
     83 H83        30.7486   21.4539    4.3972 H         1 UNK         0.1562 
     84 H84        30.3325   23.3928    6.5690 H         1 UNK         0.0748 
     85 H85        29.1278   23.0282    5.3570 H         1 UNK         0.0748 
     86 H86        27.4620   25.4301    4.1376 H         1 UNK         0.0940 
     87 H87        29.0009   25.0590    3.4162 H         1 UNK         0.0940 
     88 H88        29.7276   27.4806    4.0334 H         1 UNK         0.0703 
     89 H89        28.2335   26.6407    1.7425 H         1 UNK         0.3081 
     90 H90        28.4043   29.6982    0.0243 H         1 UNK         0.0719 
     91 H91        30.4760   27.5326   -0.5025 H         1 UNK         0.0809 
     92 H92        29.7465   28.5266   -1.7645 H         1 UNK         0.0809 
     93 H93        30.7099   29.2639   -0.4956 H         1 UNK         0.0809 
     94 H94        27.8618   27.0386   -0.8996 H         1 UNK         0.2990 
     95 H95        24.5679   26.8742    0.4383 H         1 UNK         0.0690 
     96 H96        23.7523   26.8647   -1.8939 H         1 UNK         0.0788 
     97 H97        25.2673   27.5674   -2.4640 H         1 UNK         0.0788 
     98 H98        24.1919   28.4989   -1.4306 H         1 UNK         0.0788 
     99 H99        25.5681   25.2202   -1.5377 H         1 UNK         0.2993 
    100 H100       26.2504   22.6915    0.4525 H         1 UNK         0.0949 
    101 H101       26.5352   22.0207   -1.9405 H         1 UNK         0.0767 
    102 H102       25.2492   23.1947   -1.8118 H         1 UNK         0.0767 
    103 H103       26.8385   23.6867   -2.4083 H         1 UNK         0.0767 
    104 H104       28.7257   24.0555    0.0761 H         1 UNK         0.3013 
    105 H105       26.4404   28.1401    2.8971 H         1 UNK         0.3121 
    106 H106       25.6106   29.3653    5.4557 H         1 UNK         0.0774 
    107 H107       24.1742   29.2099    2.7525 H         1 UNK         0.0815 
    108 H108       23.5035   29.8258    4.2536 H         1 UNK         0.0815 
    109 H109       23.9203   28.1255    4.1186 H         1 UNK         0.0815 
    110 H110       26.4387   30.3214    2.0920 H         1 UNK         0.2987 
    111 H111       25.9643   33.0988    2.5399 H         1 UNK         0.0949 
    112 H112       27.4965   31.7616    0.2533 H         1 UNK         0.0806 
    113 H113       25.7483   31.9762    0.3185 H         1 UNK         0.0806 
    114 H114       26.8083   33.3750    0.2471 H         1 UNK         0.0806 
    115 H115       29.0360   31.2256    2.4978 H         1 UNK         0.3010 
    116 H116       30.5438   33.7163    3.2360 H         1 UNK         0.0829 
    117 H117       31.3899   31.3633    1.4634 H         1 UNK         0.0813 
    118 H118       31.0253   32.9968    0.9182 H         1 UNK         0.0813 
    119 H119       32.4251   32.7062    1.9364 H         1 UNK         0.0813 
    120 H120       30.0536   30.2911    3.8962 H         1 UNK         0.3038 
    121 H121       30.5081   28.9659    5.6018 H         1 UNK         0.0769 
    122 H122       31.2759   29.7514    7.7969 H         1 UNK         0.0811 
    123 H123       31.6785   31.3307    7.1458 H         1 UNK         0.0811 
    124 H124       29.9996   30.7923    7.1890 H         1 UNK         0.0811 
    125 H125       33.2738   31.1228    5.0546 H         1 UNK         0.3204 
    126 H126       35.2644   28.9821    5.3340 H         1 UNK         0.0748 
    127 H127       36.8518   30.7990    4.6768 H         1 UNK         0.0771 
    128 H128       35.5035   31.8752    4.3330 H         1 UNK         0.0771 
    129 H129       35.8018   31.3247    5.9812 H         1 UNK         0.0771 
    130 H130       33.1467   29.9583    2.8498 H         1 UNK         0.2980 
    131 H131       32.8507   29.5166    0.7268 H         1 UNK         0.0545 
    132 H132       35.9058   31.7369   -0.0686 H         1 UNK         0.3459 
    133 H133       35.1814   31.4729    1.4970 H         1 UNK         0.3459 
    134 H134       33.8380   27.5014   -0.3613 H         1 UNK         0.0616 
    135 H135       34.9442   27.3041    0.9663 H         1 UNK         0.0616 
    136 H136       33.9655   26.2712    3.5165 H         1 UNK         0.0634 
    137 H137       34.5346   25.3267    2.1574 H         1 UNK         0.0634 
@<TRIPOS>BOND
     1    1    2 1    
     2    1   72 1    
     3    1   73 1    
     4    1   74 1    
     5    2    3 2    
     6    2    4 am   BACKBONE|DICT|INTERRES
     7    4    5 1    
     8    4   75 1    
     9    5    6 1    
    10    5   35 1    
    11    5   76 1    
    12    6    7 1    
    13    6   77 1    
    14    6   78 1    
    15    7    8 1    
    16    8    9 1    
    17    8   79 1    
    18    8   80 1    
    19    9   10 ar   
    20    9   14 ar   
    21   10   11 ar   
    22   10   81 1    
    23   11   12 ar   
    24   11   71 1    
    25   12   13 ar   
    26   12   82 1    
    27   13   14 ar   
    28   13   15 1    
    29   14   83 1    
    30   15   16 1    
    31   15   84 1    
    32   15   85 1    
    33   16   17 1    
    34   17   18 1    
    35   17   86 1    
    36   17   87 1    
    37   18   19 1    
    38   18   37 1    
    39   18   88 1    
    40   19   20 am   BACKBONE|DICT|INTERRES
    41   19   89 1    
    42   20   21 2    
    43   20   22 1    
    44   22   23 1    
    45   22   24 1    
    46   22   90 1    
    47   23   91 1    
    48   23   92 1    
    49   23   93 1    
    50   24   25 am   BACKBONE|DICT|INTERRES
    51   24   94 1    
    52   25   26 2    
    53   25   27 1    
    54   27   28 1    
    55   27   29 1    
    56   27   95 1    
    57   28   96 1    
    58   28   97 1    
    59   28   98 1    
    60   29   30 am   BACKBONE|DICT|INTERRES
    61   29   99 1    
    62   30   31 2    
    63   30   32 1    
    64   32   33 1    
    65   32   34 1    
    66   32  100 1    
    67   33  101 1    
    68   33  102 1    
    69   33  103 1    
    70   34   35 am   BACKBONE|DICT|INTERRES
    71   34  104 1    
    72   35   36 2    
    73   37   38 2    
    74   37   39 am   BACKBONE|DICT|INTERRES
    75   39   40 1    
    76   39  105 1    
    77   40   41 1    
    78   40   42 1    
    79   40  106 1    
    80   41  107 1    
    81   41  108 1    
    82   41  109 1    
    83   42   43 2    
    84   42   44 am   BACKBONE|DICT|INTERRES
    85   44   45 1    
    86   44  110 1    
    87   45   46 1    
    88   45   47 1    
    89   45  111 1    
    90   46  112 1    
    91   46  113 1    
    92   46  114 1    
    93   47   48 2    
    94   47   49 am   BACKBONE|DICT|INTERRES
    95   49   50 1    
    96   49  115 1    
    97   50   51 1    
    98   50   52 1    
    99   50  116 1    
   100   51  117 1    
   101   51  118 1    
   102   51  119 1    
   103   52   53 2    
   104   52   54 am   BACKBONE|DICT|INTERRES
   105   54   55 1    
   106   54  120 1    
   107   55   56 1    
   108   55   57 1    
   109   55  121 1    
   110   56  122 1    
   111   56  123 1    
   112   56  124 1    
   113   57   58 2    
   114   57   59 am   BACKBONE|DICT|INTERRES
   115   59   60 1    
   116   59  125 1    
   117   60   61 1    
   118   60   62 1    
   119   60  126 1    
   120   61  127 1    
   121   61  128 1    
   122   61  129 1    
   123   62   63 2    
   124   62   64 am   BACKBONE|DICT|INTERRES
   125   64   65 1    
   126   64  130 1    
   127   65   66 1    
   128   65   69 1    
   129   65  131 1    
   130   66   67 am   BACKBONE|DICT|INTERRES
   131   66   68 2    
   132   67  132 1    
   133   67  133 1    
   134   69   70 1    
   135   69  134 1    
   136   69  135 1    
   137   70   71 1    
   138   71  136 1    
   139   71  137 1    
@<TRIPOS>SUBSTRUCTURE
     1 UNK         1 GROUP             0       ****    0 ROOT    
