@<TRIPOS>MOLECULE
3R136
137   139    1
SMALL
USER_CHARGES


@<TRIPOS>ATOM
      1 CA         31.8542   24.2823   -2.0927 C.3       0 UNK        -0.1979 
      2 C          30.6818   23.9730   -1.1753 C.2       0 UNK         0.4864 
      3 O          29.9735   24.8913   -0.7577 O.2       0 UNK        -0.5359 
      4 N          30.4626   22.6910   -0.8561 N.am      1 UNK        -0.4318 
      5 CA         29.3750   22.2316    0.0124 C.3       1 UNK         0.0824 
      6 C6         29.4710   20.7225    0.3456 C.3       12 UNK        -0.0944 
      7 S7         31.0376   20.2731    1.1677 S.3       12 UNK        -0.2672 
      8 C8         30.5512   20.2382    2.9234 C.3       12 UNK         0.0333 
      9 C9         30.3912   21.6418    3.4892 C.ar      12 UNK        -0.0807 
     10 C10        31.5143   22.3542    3.9195 C.ar      12 UNK        -0.0894 
     11 C11        31.3930   23.6499    4.4320 C.ar      12 UNK        -0.0804 
     12 C12        30.1174   24.2233    4.5182 C.ar      12 UNK        -0.0824 
     13 C13        28.9897   23.5369    4.0590 C.ar      12 UNK        -0.0762 
     14 C14        29.1291   22.2362    3.5671 C.ar      12 UNK        -0.0782 
     15 C15        27.6252   24.2098    4.0660 C.3       12 UNK         0.0230 
     16 S16        27.4762   25.4159    2.7026 S.3       12 UNK        -0.2608 
     17 C17        27.9846   26.9784    3.4936 C.3       12 UNK        -0.0989 
     18 CA         29.3842   27.4734    3.0373 C.3       5 UNK         0.0716 
     19 N          29.3956   27.7839    1.6019 N.am      5 UNK        -0.4135 
     20 C          30.4657   28.0972    0.8563 C.2       4 UNK         0.5031 
     21 O          31.6189   28.1401    1.2865 O.2       4 UNK        -0.5229 
     22 CA         30.1951   28.4109   -0.6241 C.3       4 UNK         0.0329 
     23 CB         31.4691   28.3451   -1.4901 C.3       4 UNK        -0.2001 
     24 N          29.2122   27.4762   -1.1684 N.am      4 UNK        -0.4303 
     25 C          28.1481   27.8025   -1.9102 C.2       3 UNK         0.5044 
     26 O          27.8140   28.9616   -2.1566 O.2       3 UNK        -0.5152 
     27 CA         27.3138   26.6462   -2.4796 C.3       3 UNK         0.0319 
     28 CB         27.9775   26.0622   -3.7388 C.3       3 UNK        -0.2001 
     29 N          27.1004   25.5796   -1.4967 N.am      3 UNK        -0.4354 
     30 C          25.9326   24.9473   -1.3042 C.2       2 UNK         0.4964 
     31 O          24.9100   25.2057   -1.9420 O.2       2 UNK        -0.5047 
     32 CA         25.8735   23.8613   -0.2076 C.3       2 UNK         0.0288 
     33 CB         24.8623   22.7380   -0.5267 C.3       2 UNK        -0.2113 
     34 N          27.1842   23.3109    0.1609 N.am      2 UNK        -0.4145 
     35 C          28.0020   22.5704   -0.6016 C.2       1 UNK         0.5006 
     36 O          27.7338   22.1775   -1.7395 O.2       1 UNK        -0.5103 
     37 C          29.8429   28.6583    3.9187 C.2       5 UNK         0.5055 
     38 O          30.0585   29.7655    3.4204 O.2       5 UNK        -0.5220 
     39 N          29.9559   28.4144    5.2336 N.am      6 UNK        -0.4450 
     40 CA         30.3768   29.3707    6.2655 C.3       6 UNK         0.0367 
     41 CB         30.2716   28.7114    7.6497 C.3       6 UNK        -0.1929 
     42 C          29.6176   30.7087    6.2470 C.2       6 UNK         0.5070 
     43 O          30.2443   31.7640    6.3301 O.2       6 UNK        -0.5237 
     44 N          28.2900   30.6398    6.0925 N.am      7 UNK        -0.4739 
     45 CA         27.4103   31.8087    6.0085 C.3       7 UNK         0.0276 
     46 CB         25.9774   31.3744    6.3600 C.3       7 UNK        -0.1927 
     47 C          27.4339   32.5095    4.6365 C.2       7 UNK         0.5013 
     48 O          26.9834   33.6526    4.5486 O.2       7 UNK        -0.5193 
     49 N          27.9178   31.8191    3.5949 N.am      8 UNK        -0.4253 
     50 CA         27.9203   32.2972    2.2126 C.3       8 UNK         0.0242 
     51 CB         27.5456   31.1406    1.2696 C.3       8 UNK        -0.2000 
     52 C          29.2740   32.8996    1.8150 C.2       8 UNK         0.4948 
     53 O          29.2973   33.9911    1.2447 O.2       8 UNK        -0.5275 
     54 N          30.3689   32.1795    2.0944 N.am      9 UNK        -0.4246 
     55 CA         31.7165   32.5183    1.6295 C.3       9 UNK         0.0261 
     56 CB         31.9117   31.9930    0.1931 C.3       9 UNK        -0.1959 
     57 C          32.8202   32.0277    2.5827 C.2       9 UNK         0.5033 
     58 O          33.9488   31.8234    2.1330 O.2       9 UNK        -0.5390 
     59 N          32.4983   31.8622    3.8757 N.am      10 UNK        -0.4215 
     60 CA         33.4141   31.4685    4.9582 C.3       10 UNK         0.0240 
     61 CB         34.4653   32.5720    5.2132 C.3       10 UNK        -0.1982 
     62 C          34.0458   30.0701    4.7758 C.2       10 UNK         0.4970 
     63 O          35.1812   29.8617    5.2061 O.2       10 UNK        -0.4916 
     64 N          33.2929   29.1400    4.1684 N.am      11 UNK        -0.4279 
     65 CA         33.7016   27.7673    3.8271 C.3       11 UNK         0.1003 
     66 C          34.8360   27.7642    2.7664 C.2       11 UNK         0.5709 
     67 N          34.4858   27.9796    1.5059 N.am      11 UNK        -0.7358 
     68 O          36.0106   27.5624    3.0674 O.2       11 UNK        -0.4999 
     69 C69        33.9809   26.8627    5.0679 C.3       12 UNK        -0.0954 
     70 S70        32.4633   26.0181    5.6265 S.3       12 UNK        -0.2268 
     71 C71        32.6759   24.3935    4.8130 C.3       12 UNK         0.0203 
     72 H72        32.6052   24.8605   -1.5554 H         1 UNK         0.0888 
     73 H73        32.3268   23.3752   -2.4688 H         1 UNK         0.0888 
     74 H74        31.5174   24.8691   -2.9468 H         1 UNK         0.0888 
     75 H75        31.0628   21.9680   -1.2255 H         1 UNK         0.3017 
     76 H76        29.4774   22.7920    0.9427 H         1 UNK         0.0873 
     77 H77        28.6363   20.4130    0.9772 H         1 UNK         0.0745 
     78 H78        29.3907   20.1277   -0.5665 H         1 UNK         0.0745 
     79 H79        31.3186   19.7058    3.4875 H         1 UNK         0.0705 
     80 H80        29.6335   19.6608    3.0455 H         1 UNK         0.0705 
     81 H81        32.4932   21.9008    3.8369 H         1 UNK         0.1334 
     82 H82        29.9898   25.2178    4.9129 H         1 UNK         0.1417 
     83 H83        28.2593   21.6939    3.2217 H         1 UNK         0.1562 
     84 H84        27.4404   24.6818    5.0317 H         1 UNK         0.0748 
     85 H85        26.8383   23.4630    3.9483 H         1 UNK         0.0748 
     86 H86        27.9318   26.8448    4.5745 H         1 UNK         0.0940 
     87 H87        27.2274   27.7305    3.2620 H         1 UNK         0.0940 
     88 H88        30.1154   26.6780    3.1828 H         1 UNK         0.0703 
     89 H89        28.4981   27.7593    1.1430 H         1 UNK         0.3081 
     90 H90        29.8092   29.4318   -0.6554 H         1 UNK         0.0719 
     91 H91        31.9067   27.3465   -1.4778 H         1 UNK         0.0809 
     92 H92        31.2552   28.6035   -2.5272 H         1 UNK         0.0809 
     93 H93        32.2334   29.0371   -1.1372 H         1 UNK         0.0809 
     94 H94        29.4367   26.4906   -1.0169 H         1 UNK         0.2990 
     95 H95        26.3539   27.0768   -2.7728 H         1 UNK         0.0690 
     96 H96        28.9362   25.5952   -3.5099 H         1 UNK         0.0788 
     97 H97        28.1594   26.8392   -4.4825 H         1 UNK         0.0788 
     98 H98        27.3427   25.3085   -4.2050 H         1 UNK         0.0788 
     99 H99        27.9070   25.2955   -0.9525 H         1 UNK         0.2993 
    100 H100       25.5058   24.3740    0.6822 H         1 UNK         0.0949 
    101 H101       25.0979   22.2320   -1.4633 H         1 UNK         0.0767 
    102 H102       24.8387   21.9885    0.2644 H         1 UNK         0.0767 
    103 H103       23.8516   23.1368   -0.6216 H         1 UNK         0.0767 
    104 H104       27.5250   23.6176    1.0636 H         1 UNK         0.3013 
    105 H105       29.7801   27.4781    5.5655 H         1 UNK         0.3121 
    106 H106       31.4279   29.5881    6.0921 H         1 UNK         0.0774 
    107 H107       30.5880   29.3997    8.4349 H         1 UNK         0.0815 
    108 H108       29.2503   28.4046    7.8780 H         1 UNK         0.0815 
    109 H109       30.9110   27.8312    7.7205 H         1 UNK         0.0815 
    110 H110       27.8546   29.7309    6.0312 H         1 UNK         0.2987 
    111 H111       27.7346   32.5425    6.7502 H         1 UNK         0.0949 
    112 H112       25.2957   32.2261    6.3441 H         1 UNK         0.0806 
    113 H113       25.5931   30.6373    5.6537 H         1 UNK         0.0806 
    114 H114       25.9270   30.9421    7.3595 H         1 UNK         0.0806 
    115 H115       28.3498   30.9206    3.7677 H         1 UNK         0.3010 
    116 H116       27.1639   33.0758    2.0899 H         1 UNK         0.0829 
    117 H117       26.5535   30.7503    1.4967 H         1 UNK         0.0813 
    118 H118       27.5330   31.4713    0.2300 H         1 UNK         0.0813 
    119 H119       28.2529   30.3158    1.3379 H         1 UNK         0.0813 
    120 H120       30.2633   31.2769    2.5600 H         1 UNK         0.3038 
    121 H121       31.8180   33.6053    1.6088 H         1 UNK         0.0769 
    122 H122       32.8765   32.2975   -0.2142 H         1 UNK         0.0811 
    123 H123       31.1452   32.3715   -0.4831 H         1 UNK         0.0811 
    124 H124       31.8748   30.9052    0.1702 H         1 UNK         0.0811 
    125 H125       31.5469   32.0564    4.1609 H         1 UNK         0.3204 
    126 H126       32.8108   31.4062    5.8627 H         1 UNK         0.0748 
    127 H127       35.0449   32.3614    6.1128 H         1 UNK         0.0771 
    128 H128       35.1710   32.6599    4.3866 H         1 UNK         0.0771 
    129 H129       33.9931   33.5439    5.3565 H         1 UNK         0.0771 
    130 H130       32.3974   29.4251    3.7962 H         1 UNK         0.2980 
    131 H131       32.8446   27.3304    3.3163 H         1 UNK         0.0545 
    132 H132       35.1871   27.9906    0.7837 H         1 UNK         0.3459 
    133 H133       33.5045   28.1214    1.2773 H         1 UNK         0.3459 
    134 H134       34.7314   26.1003    4.8522 H         1 UNK         0.0616 
    135 H135       34.3870   27.4356    5.9016 H         1 UNK         0.0616 
    136 H136       33.2493   24.5333    3.8954 H         1 UNK         0.0634 
    137 H137       33.2817   23.7628    5.4652 H         1 UNK         0.0634 
@<TRIPOS>BOND
     1    1    2 1    
     2    1   72 1    
     3    1   73 1    
     4    1   74 1    
     5    2    3 2    
     6    2    4 am   BACKBONE|DICT|INTERRES
     7    4    5 1    
     8    4   75 1    
     9    5    6 1    
    10    5   35 1    
    11    5   76 1    
    12    6    7 1    
    13    6   77 1    
    14    6   78 1    
    15    7    8 1    
    16    8    9 1    
    17    8   79 1    
    18    8   80 1    
    19    9   10 ar   
    20    9   14 ar   
    21   10   11 ar   
    22   10   81 1    
    23   11   12 ar   
    24   11   71 1    
    25   12   13 ar   
    26   12   82 1    
    27   13   14 ar   
    28   13   15 1    
    29   14   83 1    
    30   15   16 1    
    31   15   84 1    
    32   15   85 1    
    33   16   17 1    
    34   17   18 1    
    35   17   86 1    
    36   17   87 1    
    37   18   19 1    
    38   18   37 1    
    39   18   88 1    
    40   19   20 am   BACKBONE|DICT|INTERRES
    41   19   89 1    
    42   20   21 2    
    43   20   22 1    
    44   22   23 1    
    45   22   24 1    
    46   22   90 1    
    47   23   91 1    
    48   23   92 1    
    49   23   93 1    
    50   24   25 am   BACKBONE|DICT|INTERRES
    51   24   94 1    
    52   25   26 2    
    53   25   27 1    
    54   27   28 1    
    55   27   29 1    
    56   27   95 1    
    57   28   96 1    
    58   28   97 1    
    59   28   98 1    
    60   29   30 am   BACKBONE|DICT|INTERRES
    61   29   99 1    
    62   30   31 2    
    63   30   32 1    
    64   32   33 1    
    65   32   34 1    
    66   32  100 1    
    67   33  101 1    
    68   33  102 1    
    69   33  103 1    
    70   34   35 am   BACKBONE|DICT|INTERRES
    71   34  104 1    
    72   35   36 2    
    73   37   38 2    
    74   37   39 am   BACKBONE|DICT|INTERRES
    75   39   40 1    
    76   39  105 1    
    77   40   41 1    
    78   40   42 1    
    79   40  106 1    
    80   41  107 1    
    81   41  108 1    
    82   41  109 1    
    83   42   43 2    
    84   42   44 am   BACKBONE|DICT|INTERRES
    85   44   45 1    
    86   44  110 1    
    87   45   46 1    
    88   45   47 1    
    89   45  111 1    
    90   46  112 1    
    91   46  113 1    
    92   46  114 1    
    93   47   48 2    
    94   47   49 am   BACKBONE|DICT|INTERRES
    95   49   50 1    
    96   49  115 1    
    97   50   51 1    
    98   50   52 1    
    99   50  116 1    
   100   51  117 1    
   101   51  118 1    
   102   51  119 1    
   103   52   53 2    
   104   52   54 am   BACKBONE|DICT|INTERRES
   105   54   55 1    
   106   54  120 1    
   107   55   56 1    
   108   55   57 1    
   109   55  121 1    
   110   56  122 1    
   111   56  123 1    
   112   56  124 1    
   113   57   58 2    
   114   57   59 am   BACKBONE|DICT|INTERRES
   115   59   60 1    
   116   59  125 1    
   117   60   61 1    
   118   60   62 1    
   119   60  126 1    
   120   61  127 1    
   121   61  128 1    
   122   61  129 1    
   123   62   63 2    
   124   62   64 am   BACKBONE|DICT|INTERRES
   125   64   65 1    
   126   64  130 1    
   127   65   66 1    
   128   65   69 1    
   129   65  131 1    
   130   66   67 am   BACKBONE|DICT|INTERRES
   131   66   68 2    
   132   67  132 1    
   133   67  133 1    
   134   69   70 1    
   135   69  134 1    
   136   69  135 1    
   137   70   71 1    
   138   71  136 1    
   139   71  137 1    
@<TRIPOS>SUBSTRUCTURE
     1 UNK         1 GROUP             0       ****    0 ROOT    
