@<TRIPOS>MOLECULE
3R136
137   139    1
SMALL
USER_CHARGES


@<TRIPOS>ATOM
      1 CA         27.8433   22.8344   -2.6033 C.3       0 UNK        -0.1979 
      2 C          27.9446   22.9118   -1.0877 C.2       0 UNK         0.4864 
      3 O          27.0156   22.4901   -0.3963 O.2       0 UNK        -0.5359 
      4 N          29.0572   23.4579   -0.5718 N.am      1 UNK        -0.4318 
      5 CA         29.3694   23.6328    0.8538 C.3       1 UNK         0.0824 
      6 C6         29.7296   22.2930    1.5637 C.3       12 UNK        -0.0944 
      7 S7         31.3445   21.6506    1.0027 S.3       12 UNK        -0.2672 
      8 C8         32.4394   22.0806    2.4030 C.3       12 UNK         0.0333 
      9 C9         32.3348   23.5534    2.7760 C.ar      12 UNK        -0.0807 
     10 C10        31.7732   23.9356    3.9989 C.ar      12 UNK        -0.0894 
     11 C11        31.5849   25.2871    4.3007 C.ar      12 UNK        -0.0804 
     12 C12        31.9484   26.2570    3.3615 C.ar      12 UNK        -0.0824 
     13 C13        32.5204   25.8872    2.1422 C.ar      12 UNK        -0.0762 
     14 C14        32.7425   24.5351    1.8689 C.ar      12 UNK        -0.0782 
     15 C15        32.8501   26.9418    1.0988 C.3       12 UNK         0.0230 
     16 S16        31.7611   26.7515   -0.3507 S.3       12 UNK        -0.2608 
     17 C17        31.3828   28.4831   -0.7837 C.3       12 UNK        -0.0989 
     18 CA         29.9657   28.9337   -0.3474 C.3       5 UNK         0.0716 
     19 N          28.9174   28.0490   -0.8668 N.am      5 UNK        -0.4135 
     20 C          27.5926   28.2293   -0.7775 C.2       4 UNK         0.5031 
     21 O          27.0606   29.1095   -0.0983 O.2       4 UNK        -0.5229 
     22 CA         26.7114   27.2961   -1.6204 C.3       4 UNK         0.0329 
     23 CB         27.4699   26.5282   -2.7255 C.3       4 UNK        -0.2001 
     24 N          26.0072   26.3478   -0.7606 N.am      4 UNK        -0.4303 
     25 C          24.7518   25.9268   -0.9745 C.2       3 UNK         0.5044 
     26 O          24.0432   26.3557   -1.8871 O.2       3 UNK        -0.5152 
     27 CA         24.1752   24.8280   -0.0602 C.3       3 UNK         0.0319 
     28 CB         23.7331   23.6081   -0.8882 C.3       3 UNK        -0.2001 
     29 N          25.1161   24.3763    0.9648 N.am      3 UNK        -0.4354 
     30 C          25.2196   24.9059    2.1916 C.2       2 UNK         0.4964 
     31 O          24.5090   25.8222    2.6048 O.2       2 UNK        -0.5047 
     32 CA         26.3058   24.3267    3.1169 C.3       2 UNK         0.0288 
     33 CB         25.7108   23.2325    4.0177 C.3       2 UNK        -0.2113 
     34 N          27.4694   23.7818    2.4123 N.am      2 UNK        -0.4145 
     35 C          28.2633   24.4453    1.5576 C.2       1 UNK         0.5006 
     36 O          28.1235   25.6381    1.2725 O.2       1 UNK        -0.5103 
     37 C          29.8986   29.2373    1.1622 C.2       5 UNK         0.5055 
     38 O          30.3790   30.2995    1.5565 O.2       5 UNK        -0.5220 
     39 N          29.2676   28.3712    1.9712 N.am      6 UNK        -0.4450 
     40 CA         29.0305   28.5819    3.4078 C.3       6 UNK         0.0367 
     41 CB         28.2587   27.3832    3.9707 C.3       6 UNK        -0.1929 
     42 C          28.2772   29.8787    3.7573 C.2       6 UNK         0.5070 
     43 O          28.4047   30.3659    4.8806 O.2       6 UNK        -0.5237 
     44 N          27.5201   30.4233    2.7959 N.am      7 UNK        -0.4739 
     45 CA         26.8397   31.7118    2.9061 C.3       7 UNK         0.0276 
     46 CB         25.7998   31.8140    1.7779 C.3       7 UNK        -0.1927 
     47 C          27.7860   32.9297    2.8759 C.2       7 UNK         0.5013 
     48 O          27.3343   34.0201    3.2307 O.2       7 UNK        -0.5193 
     49 N          29.0441   32.7574    2.4369 N.am      8 UNK        -0.4253 
     50 CA         29.9833   33.8616    2.2123 C.3       8 UNK         0.0242 
     51 CB         29.9612   34.2405    0.7200 C.3       8 UNK        -0.2000 
     52 C          31.4260   33.5887    2.6686 C.2       8 UNK         0.4948 
     53 O          32.1192   34.5548    2.9936 O.2       8 UNK        -0.5275 
     54 N          31.8832   32.3298    2.6568 N.am      9 UNK        -0.4246 
     55 CA         33.2863   31.9623    2.8548 C.3       9 UNK         0.0261 
     56 CB         33.9070   31.6613    1.4776 C.3       9 UNK        -0.1959 
     57 C          33.4380   30.7500    3.7823 C.2       9 UNK         0.5033 
     58 O          32.4896   29.9891    3.9875 O.2       9 UNK        -0.5390 
     59 N          34.6640   30.5849    4.2954 N.am      10 UNK        -0.4215 
     60 CA         35.1283   29.4179    5.0477 C.3       10 UNK         0.0240 
     61 CB         36.4848   29.7791    5.6781 C.3       10 UNK        -0.1982 
     62 C          35.2556   28.1942    4.1090 C.2       10 UNK         0.4970 
     63 O          35.6240   28.3904    2.9499 O.2       10 UNK        -0.4916 
     64 N          34.9964   26.9485    4.5326 N.am      11 UNK        -0.4279 
     65 CA         34.6394   26.4292    5.8653 C.3       11 UNK         0.1003 
     66 C          35.8189   26.3475    6.8785 C.2       11 UNK         0.5709 
     67 N          37.0659   26.3510    6.4225 N.am      11 UNK        -0.7358 
     68 O          35.6122   26.2593    8.0861 O.2       11 UNK        -0.4999 
     69 C69        33.3124   27.0055    6.4505 C.3       12 UNK        -0.0954 
     70 S70        32.1706   25.6890    6.9878 S.3       12 UNK        -0.2268 
     71 C71        30.9615   25.6965    5.6285 C.3       12 UNK         0.0203 
     72 H72        28.7098   23.2763   -3.0948 H         1 UNK         0.0888 
     73 H73        27.7670   21.7945   -2.9194 H         1 UNK         0.0888 
     74 H74        26.9526   23.3605   -2.9456 H         1 UNK         0.0888 
     75 H75        29.7749   23.7883   -1.2009 H         1 UNK         0.3017 
     76 H76        30.2433   24.2815    0.8885 H         1 UNK         0.0873 
     77 H77        29.7688   22.4108    2.6477 H         1 UNK         0.0745 
     78 H78        28.9724   21.5314    1.3702 H         1 UNK         0.0745 
     79 H79        32.1905   21.4457    3.2548 H         1 UNK         0.0705 
     80 H80        33.4706   21.8469    2.1351 H         1 UNK         0.0705 
     81 H81        31.4630   23.1827    4.7107 H         1 UNK         0.1334 
     82 H82        31.7892   27.3038    3.5773 H         1 UNK         0.1417 
     83 H83        33.1644   24.2431    0.9164 H         1 UNK         0.1562 
     84 H84        33.8916   26.8456    0.7892 H         1 UNK         0.0748 
     85 H85        32.7459   27.9406    1.5267 H         1 UNK         0.0748 
     86 H86        31.4655   28.5693   -1.8683 H         1 UNK         0.0940 
     87 H87        32.1506   29.1517   -0.3899 H         1 UNK         0.0940 
     88 H88        29.7864   29.8967   -0.8305 H         1 UNK         0.0703 
     89 H89        29.2505   27.2669   -1.4101 H         1 UNK         0.3081 
     90 H90        25.9886   27.9521   -2.1104 H         1 UNK         0.0719 
     91 H91        28.1850   25.8161   -2.3141 H         1 UNK         0.0809 
     92 H92        26.7776   25.9703   -3.3563 H         1 UNK         0.0809 
     93 H93        28.0126   27.2104   -3.3815 H         1 UNK         0.0809 
     94 H94        26.5257   26.0029    0.0412 H         1 UNK         0.2990 
     95 H95        23.2871   25.2443    0.4199 H         1 UNK         0.0690 
     96 H96        23.3056   22.8317   -0.2536 H         1 UNK         0.0788 
     97 H97        24.5665   23.1700   -1.4384 H         1 UNK         0.0788 
     98 H98        22.9702   23.8831   -1.6178 H         1 UNK         0.0788 
     99 H99        25.7594   23.6391    0.6878 H         1 UNK         0.2993 
    100 H100       26.6535   25.1327    3.7612 H         1 UNK         0.0949 
    101 H101       26.4402   22.8764    4.7456 H         1 UNK         0.0767 
    102 H102       24.8552   23.6113    4.5790 H         1 UNK         0.0767 
    103 H103       25.3664   22.3751    3.4377 H         1 UNK         0.0767 
    104 H104       27.6367   22.7942    2.5367 H         1 UNK         0.3013 
    105 H105       28.8912   27.5173    1.5700 H         1 UNK         0.3121 
    106 H106       30.0024   28.6406    3.8992 H         1 UNK         0.0774 
    107 H107       28.1099   27.4789    5.0470 H         1 UNK         0.0815 
    108 H108       27.2737   27.3071    3.5092 H         1 UNK         0.0815 
    109 H109       28.7907   26.4489    3.7970 H         1 UNK         0.0815 
    110 H110       27.4557   29.9482    1.9016 H         1 UNK         0.2987 
    111 H111       26.3116   31.7377    3.8620 H         1 UNK         0.0949 
    112 H112       26.2704   31.7869    0.7939 H         1 UNK         0.0806 
    113 H113       25.0795   30.9969    1.8260 H         1 UNK         0.0806 
    114 H114       25.2366   32.7458    1.8455 H         1 UNK         0.0806 
    115 H115       29.3548   31.8256    2.1771 H         1 UNK         0.3010 
    116 H116       29.6616   34.7363    2.7825 H         1 UNK         0.0829 
    117 H117       28.9683   34.5651    0.4077 H         1 UNK         0.0813 
    118 H118       30.6491   35.0615    0.5121 H         1 UNK         0.0813 
    119 H119       30.2537   33.3996    0.0890 H         1 UNK         0.0813 
    120 H120       31.2730   31.5548    2.3969 H         1 UNK         0.3038 
    121 H121       33.8329   32.7889    3.3140 H         1 UNK         0.0769 
    122 H122       33.3970   30.8331    0.9839 H         1 UNK         0.0811 
    123 H123       34.9600   31.3896    1.5637 H         1 UNK         0.0811 
    124 H124       33.8505   32.5285    0.8195 H         1 UNK         0.0811 
    125 H125       35.3793   31.2468    4.0318 H         1 UNK         0.3204 
    126 H126       34.4108   29.2411    5.8439 H         1 UNK         0.0748 
    127 H127       36.8195   29.0151    6.3765 H         1 UNK         0.0771 
    128 H128       37.2645   29.8956    4.9238 H         1 UNK         0.0771 
    129 H129       36.4252   30.7103    6.2423 H         1 UNK         0.0771 
    130 H130       35.0971   26.2184    3.8434 H         1 UNK         0.2980 
    131 H131       34.4559   25.3773    5.6435 H         1 UNK         0.0545 
    132 H132       37.2540   26.3992    5.4339 H         1 UNK         0.3459 
    133 H133       37.8289   26.2852    7.0778 H         1 UNK         0.3459 
    134 H134       33.4970   27.6629    7.3017 H         1 UNK         0.0616 
    135 H135       32.7939   27.6254    5.7192 H         1 UNK         0.0616 
    136 H136       30.1445   25.0170    5.8756 H         1 UNK         0.0634 
    137 H137       30.5220   26.6918    5.5591 H         1 UNK         0.0634 
@<TRIPOS>BOND
     1    1    2 1    
     2    1   72 1    
     3    1   73 1    
     4    1   74 1    
     5    2    3 2    
     6    2    4 am   BACKBONE|DICT|INTERRES
     7    4    5 1    
     8    4   75 1    
     9    5    6 1    
    10    5   35 1    
    11    5   76 1    
    12    6    7 1    
    13    6   77 1    
    14    6   78 1    
    15    7    8 1    
    16    8    9 1    
    17    8   79 1    
    18    8   80 1    
    19    9   10 ar   
    20    9   14 ar   
    21   10   11 ar   
    22   10   81 1    
    23   11   12 ar   
    24   11   71 1    
    25   12   13 ar   
    26   12   82 1    
    27   13   14 ar   
    28   13   15 1    
    29   14   83 1    
    30   15   16 1    
    31   15   84 1    
    32   15   85 1    
    33   16   17 1    
    34   17   18 1    
    35   17   86 1    
    36   17   87 1    
    37   18   19 1    
    38   18   37 1    
    39   18   88 1    
    40   19   20 am   BACKBONE|DICT|INTERRES
    41   19   89 1    
    42   20   21 2    
    43   20   22 1    
    44   22   23 1    
    45   22   24 1    
    46   22   90 1    
    47   23   91 1    
    48   23   92 1    
    49   23   93 1    
    50   24   25 am   BACKBONE|DICT|INTERRES
    51   24   94 1    
    52   25   26 2    
    53   25   27 1    
    54   27   28 1    
    55   27   29 1    
    56   27   95 1    
    57   28   96 1    
    58   28   97 1    
    59   28   98 1    
    60   29   30 am   BACKBONE|DICT|INTERRES
    61   29   99 1    
    62   30   31 2    
    63   30   32 1    
    64   32   33 1    
    65   32   34 1    
    66   32  100 1    
    67   33  101 1    
    68   33  102 1    
    69   33  103 1    
    70   34   35 am   BACKBONE|DICT|INTERRES
    71   34  104 1    
    72   35   36 2    
    73   37   38 2    
    74   37   39 am   BACKBONE|DICT|INTERRES
    75   39   40 1    
    76   39  105 1    
    77   40   41 1    
    78   40   42 1    
    79   40  106 1    
    80   41  107 1    
    81   41  108 1    
    82   41  109 1    
    83   42   43 2    
    84   42   44 am   BACKBONE|DICT|INTERRES
    85   44   45 1    
    86   44  110 1    
    87   45   46 1    
    88   45   47 1    
    89   45  111 1    
    90   46  112 1    
    91   46  113 1    
    92   46  114 1    
    93   47   48 2    
    94   47   49 am   BACKBONE|DICT|INTERRES
    95   49   50 1    
    96   49  115 1    
    97   50   51 1    
    98   50   52 1    
    99   50  116 1    
   100   51  117 1    
   101   51  118 1    
   102   51  119 1    
   103   52   53 2    
   104   52   54 am   BACKBONE|DICT|INTERRES
   105   54   55 1    
   106   54  120 1    
   107   55   56 1    
   108   55   57 1    
   109   55  121 1    
   110   56  122 1    
   111   56  123 1    
   112   56  124 1    
   113   57   58 2    
   114   57   59 am   BACKBONE|DICT|INTERRES
   115   59   60 1    
   116   59  125 1    
   117   60   61 1    
   118   60   62 1    
   119   60  126 1    
   120   61  127 1    
   121   61  128 1    
   122   61  129 1    
   123   62   63 2    
   124   62   64 am   BACKBONE|DICT|INTERRES
   125   64   65 1    
   126   64  130 1    
   127   65   66 1    
   128   65   69 1    
   129   65  131 1    
   130   66   67 am   BACKBONE|DICT|INTERRES
   131   66   68 2    
   132   67  132 1    
   133   67  133 1    
   134   69   70 1    
   135   69  134 1    
   136   69  135 1    
   137   70   71 1    
   138   71  136 1    
   139   71  137 1    
@<TRIPOS>SUBSTRUCTURE
     1 UNK         1 GROUP             0       ****    0 ROOT    
