@<TRIPOS>MOLECULE
3R136
137   139    1
SMALL
USER_CHARGES


@<TRIPOS>ATOM
      1 CA         26.4687   19.2796    0.5940 C.3       0 UNK        -0.1979 
      2 C          27.7947   19.6195   -0.0707 C.2       0 UNK         0.4864 
      3 O          28.1666   18.9815   -1.0573 O.2       0 UNK        -0.5359 
      4 N          28.5112   20.6135    0.4678 N.am      1 UNK        -0.4318 
      5 CA         29.7598   21.1453   -0.0852 C.3       1 UNK         0.0824 
      6 C6         30.6199   21.8260    1.0122 C.3       12 UNK        -0.0944 
      7 S7         29.7945   23.2048    1.8833 S.3       12 UNK        -0.2672 
      8 C8         29.5925   22.5118    3.5533 C.3       12 UNK         0.0333 
      9 C9         29.1115   23.5822    4.5184 C.ar      12 UNK        -0.0807 
     10 C10        30.0302   24.4795    5.0672 C.ar      12 UNK        -0.0894 
     11 C11        29.6028   25.5044    5.9143 C.ar      12 UNK        -0.0804 
     12 C12        28.2507   25.5996    6.2538 C.ar      12 UNK        -0.0824 
     13 C13        27.3181   24.7178    5.6976 C.ar      12 UNK        -0.0762 
     14 C14        27.7560   23.7020    4.8397 C.ar      12 UNK        -0.0782 
     15 C15        25.8331   24.8909    5.9861 C.3       12 UNK         0.0230 
     16 S16        24.9014   25.3585    4.4888 S.3       12 UNK        -0.2608 
     17 C17        25.3846   27.1042    4.2184 C.3       12 UNK        -0.0989 
     18 CA         26.7720   27.2985    3.5419 C.3       5 UNK         0.0716 
     19 N          27.0180   26.4038    2.4081 N.am      5 UNK        -0.4135 
     20 C          26.4599   26.4521    1.1933 C.2       4 UNK         0.5031 
     21 O          25.5993   27.2661    0.8515 O.2       4 UNK        -0.5229 
     22 CA         26.9896   25.4157    0.1849 C.3       4 UNK         0.0329 
     23 CB         25.9023   25.0161   -0.8296 C.3       4 UNK        -0.2001 
     24 N          28.1917   25.8273   -0.5542 N.am      4 UNK        -0.4303 
     25 C          29.3171   26.3971   -0.0923 C.2       3 UNK         0.5044 
     26 O          29.4755   26.8011    1.0598 O.2       3 UNK        -0.5152 
     27 CA         30.4892   26.4878   -1.0882 C.3       3 UNK         0.0319 
     28 CB         31.7921   26.9771   -0.4242 C.3       3 UNK        -0.2001 
     29 N          30.7392   25.1794   -1.6971 N.am      3 UNK        -0.4354 
     30 C          30.1892   24.7341   -2.8345 C.2       2 UNK         0.4964 
     31 O          29.4386   25.4082   -3.5399 O.2       2 UNK        -0.5047 
     32 CA         30.4883   23.2747   -3.2226 C.3       2 UNK         0.0288 
     33 CB         31.8062   23.1826   -4.0088 C.3       2 UNK        -0.2113 
     34 N          30.5396   22.3682   -2.0687 N.am      2 UNK        -0.4145 
     35 C          29.4885   22.0804   -1.2854 C.2       1 UNK         0.5006 
     36 O          28.3572   22.5354   -1.4751 O.2       1 UNK        -0.5103 
     37 C          27.1027   28.7768    3.2368 C.2       5 UNK         0.5055 
     38 O          26.5002   29.6782    3.8253 O.2       5 UNK        -0.5220 
     39 N          28.0662   29.0090    2.3343 N.am      6 UNK        -0.4450 
     40 CA         28.5260   30.3302    1.9153 C.3       6 UNK         0.0367 
     41 CB         29.1118   30.2273    0.4960 C.3       6 UNK        -0.1929 
     42 C          29.5334   30.8950    2.9287 C.2       6 UNK         0.5070 
     43 O          30.7275   30.9737    2.6377 O.2       6 UNK        -0.5237 
     44 N          29.0392   31.2764    4.1137 N.am      7 UNK        -0.4739 
     45 CA         29.8311   31.8198    5.2253 C.3       7 UNK         0.0276 
     46 CB         28.9103   32.1042    6.4214 C.3       7 UNK        -0.1927 
     47 C          30.6465   33.0699    4.8521 C.2       7 UNK         0.5013 
     48 O          31.7941   33.1953    5.2794 O.2       7 UNK        -0.5193 
     49 N          30.0698   33.9278    3.9985 N.am      8 UNK        -0.4253 
     50 CA         30.7175   35.1108    3.4231 C.3       8 UNK         0.0242 
     51 CB         29.6634   35.9475    2.6798 C.3       8 UNK        -0.2000 
     52 C          31.9024   34.7897    2.4900 C.2       8 UNK         0.4948 
     53 O          32.7619   35.6514    2.3034 O.2       8 UNK        -0.5275 
     54 N          31.9395   33.5701    1.9342 N.am      9 UNK        -0.4246 
     55 CA         33.0266   33.0571    1.0979 C.3       9 UNK         0.0261 
     56 CB         32.4176   32.2849   -0.0866 C.3       9 UNK        -0.1959 
     57 C          33.9976   32.1608    1.8912 C.2       9 UNK         0.5033 
     58 O          34.9144   31.6081    1.2816 O.2       9 UNK        -0.5390 
     59 N          33.7874   32.0269    3.2123 N.am      10 UNK        -0.4215 
     60 CA         34.5130   31.1670    4.1526 C.3       10 UNK         0.0240 
     61 CB         35.9773   31.6300    4.3149 C.3       10 UNK        -0.1982 
     62 C          34.3817   29.6772    3.7847 C.2       10 UNK         0.4970 
     63 O          35.3745   29.0361    3.4328 O.2       10 UNK        -0.4916 
     64 N          33.1435   29.1708    3.8598 N.am      11 UNK        -0.4279 
     65 CA         32.7632   27.7666    3.6369 C.3       11 UNK         0.1003 
     66 C          33.5830   26.7211    4.4483 C.2       11 UNK         0.5709 
     67 N          33.7011   25.5015    3.9391 N.am      11 UNK        -0.7358 
     68 O          34.0737   26.9863    5.5446 O.2       11 UNK        -0.4999 
     69 C69        31.2357   27.5587    3.8251 C.3       12 UNK        -0.0954 
     70 S70        30.5745   28.0682    5.4565 S.3       12 UNK        -0.2268 
     71 C71        30.5978   26.5280    6.4361 C.3       12 UNK         0.0203 
     72 H72        26.4685   18.2406    0.9224 H         1 UNK         0.0888 
     73 H73        26.2743   19.9095    1.4620 H         1 UNK         0.0888 
     74 H74        25.6502   19.4147   -0.1126 H         1 UNK         0.0888 
     75 H75        28.1352   21.1349    1.2457 H         1 UNK         0.3017 
     76 H76        30.3366   20.3018   -0.4717 H         1 UNK         0.0873 
     77 H77        30.9251   21.0739    1.7413 H         1 UNK         0.0745 
     78 H78        31.5530   22.2040    0.5912 H         1 UNK         0.0745 
     79 H79        28.8927   21.6755    3.5225 H         1 UNK         0.0705 
     80 H80        30.5453   22.1096    3.9015 H         1 UNK         0.0705 
     81 H81        31.0761   24.4008    4.8032 H         1 UNK         0.1334 
     82 H82        27.9194   26.3973    6.9049 H         1 UNK         0.1417 
     83 H83        27.0353   23.0252    4.4009 H         1 UNK         0.1562 
     84 H84        25.6640   25.6343    6.7667 H         1 UNK         0.0748 
     85 H85        25.4354   23.9496    6.3679 H         1 UNK         0.0748 
     86 H86        25.3520   27.6275    5.1758 H         1 UNK         0.0940 
     87 H87        24.6087   27.5611    3.6014 H         1 UNK         0.0940 
     88 H88        27.5336   27.0315    4.2664 H         1 UNK         0.0703 
     89 H89        27.7647   25.7367    2.5496 H         1 UNK         0.3081 
     90 H90        27.2549   24.5170    0.7448 H         1 UNK         0.0719 
     91 H91        25.6389   25.8460   -1.4866 H         1 UNK         0.0809 
     92 H92        26.2258   24.1842   -1.4549 H         1 UNK         0.0809 
     93 H93        24.9905   24.6997   -0.3211 H         1 UNK         0.0809 
     94 H94        28.2063   25.5490   -1.5262 H         1 UNK         0.2990 
     95 H95        30.2108   27.2122   -1.8564 H         1 UNK         0.0690 
     96 H96        32.6043   27.0449   -1.1479 H         1 UNK         0.0788 
     97 H97        32.1109   26.3090    0.3769 H         1 UNK         0.0788 
     98 H98        31.6668   27.9687    0.0115 H         1 UNK         0.0788 
     99 H99        31.3046   24.5390   -1.1593 H         1 UNK         0.2993 
    100 H100       29.6781   22.9387   -3.8739 H         1 UNK         0.0949 
    101 H101       31.9845   22.1684   -4.3671 H         1 UNK         0.0767 
    102 H102       31.7839   23.8336   -4.8841 H         1 UNK         0.0767 
    103 H103       32.6626   23.4810   -3.4026 H         1 UNK         0.0767 
    104 H104       31.4348   21.9482   -1.8625 H         1 UNK         0.3013 
    105 H105       28.5486   28.2105    1.9256 H         1 UNK         0.3121 
    106 H106       27.6736   31.0116    1.8734 H         1 UNK         0.0774 
    107 H107       29.4168   31.2080    0.1294 H         1 UNK         0.0815 
    108 H108       29.9876   29.5794    0.4677 H         1 UNK         0.0815 
    109 H109       28.3796   29.8311   -0.2077 H         1 UNK         0.0815 
    110 H110       28.0528   31.1124    4.2831 H         1 UNK         0.2987 
    111 H111       30.5462   31.0510    5.5231 H         1 UNK         0.0949 
    112 H112       28.1428   32.8394    6.1765 H         1 UNK         0.0806 
    113 H113       28.4103   31.1961    6.7594 H         1 UNK         0.0806 
    114 H114       29.4782   32.4933    7.2678 H         1 UNK         0.0806 
    115 H115       29.1270   33.7300    3.6950 H         1 UNK         0.3010 
    116 H116       31.1101   35.7082    4.2489 H         1 UNK         0.0829 
    117 H117       28.8596   36.2593    3.3472 H         1 UNK         0.0813 
    118 H118       30.1063   36.8544    2.2651 H         1 UNK         0.0813 
    119 H119       29.2189   35.3945    1.8513 H         1 UNK         0.0813 
    120 H120       31.2243   32.8917    2.1758 H         1 UNK         0.3038 
    121 H121       33.6102   33.8870    0.6941 H         1 UNK         0.0769 
    122 H122       31.9132   31.3763    0.2426 H         1 UNK         0.0811 
    123 H123       33.1902   31.9855   -0.7958 H         1 UNK         0.0811 
    124 H124       31.6968   32.8936   -0.6325 H         1 UNK         0.0811 
    125 H125       33.0048   32.5289    3.6152 H         1 UNK         0.3204 
    126 H126       34.0258   31.2925    5.1211 H         1 UNK         0.0748 
    127 H127       36.4874   31.0407    5.0779 H         1 UNK         0.0771 
    128 H128       36.5468   31.5242    3.3911 H         1 UNK         0.0771 
    129 H129       36.0299   32.6743    4.6227 H         1 UNK         0.0771 
    130 H130       32.3805   29.7865    4.1004 H         1 UNK         0.2980 
    131 H131       32.9847   27.5774    2.5850 H         1 UNK         0.0545 
    132 H132       33.2978   25.2654    3.0466 H         1 UNK         0.3459 
    133 H133       34.2205   24.8077    4.4532 H         1 UNK         0.3459 
    134 H134       30.9517   26.5313    3.6017 H         1 UNK         0.0616 
    135 H135       30.7146   28.1530    3.0753 H         1 UNK         0.0616 
    136 H136       30.3562   26.7726    7.4713 H         1 UNK         0.0634 
    137 H137       31.6045   26.1110    6.4546 H         1 UNK         0.0634 
@<TRIPOS>BOND
     1    1    2 1    
     2    1   72 1    
     3    1   73 1    
     4    1   74 1    
     5    2    3 2    
     6    2    4 am   BACKBONE|DICT|INTERRES
     7    4    5 1    
     8    4   75 1    
     9    5    6 1    
    10    5   35 1    
    11    5   76 1    
    12    6    7 1    
    13    6   77 1    
    14    6   78 1    
    15    7    8 1    
    16    8    9 1    
    17    8   79 1    
    18    8   80 1    
    19    9   10 ar   
    20    9   14 ar   
    21   10   11 ar   
    22   10   81 1    
    23   11   12 ar   
    24   11   71 1    
    25   12   13 ar   
    26   12   82 1    
    27   13   14 ar   
    28   13   15 1    
    29   14   83 1    
    30   15   16 1    
    31   15   84 1    
    32   15   85 1    
    33   16   17 1    
    34   17   18 1    
    35   17   86 1    
    36   17   87 1    
    37   18   19 1    
    38   18   37 1    
    39   18   88 1    
    40   19   20 am   BACKBONE|DICT|INTERRES
    41   19   89 1    
    42   20   21 2    
    43   20   22 1    
    44   22   23 1    
    45   22   24 1    
    46   22   90 1    
    47   23   91 1    
    48   23   92 1    
    49   23   93 1    
    50   24   25 am   BACKBONE|DICT|INTERRES
    51   24   94 1    
    52   25   26 2    
    53   25   27 1    
    54   27   28 1    
    55   27   29 1    
    56   27   95 1    
    57   28   96 1    
    58   28   97 1    
    59   28   98 1    
    60   29   30 am   BACKBONE|DICT|INTERRES
    61   29   99 1    
    62   30   31 2    
    63   30   32 1    
    64   32   33 1    
    65   32   34 1    
    66   32  100 1    
    67   33  101 1    
    68   33  102 1    
    69   33  103 1    
    70   34   35 am   BACKBONE|DICT|INTERRES
    71   34  104 1    
    72   35   36 2    
    73   37   38 2    
    74   37   39 am   BACKBONE|DICT|INTERRES
    75   39   40 1    
    76   39  105 1    
    77   40   41 1    
    78   40   42 1    
    79   40  106 1    
    80   41  107 1    
    81   41  108 1    
    82   41  109 1    
    83   42   43 2    
    84   42   44 am   BACKBONE|DICT|INTERRES
    85   44   45 1    
    86   44  110 1    
    87   45   46 1    
    88   45   47 1    
    89   45  111 1    
    90   46  112 1    
    91   46  113 1    
    92   46  114 1    
    93   47   48 2    
    94   47   49 am   BACKBONE|DICT|INTERRES
    95   49   50 1    
    96   49  115 1    
    97   50   51 1    
    98   50   52 1    
    99   50  116 1    
   100   51  117 1    
   101   51  118 1    
   102   51  119 1    
   103   52   53 2    
   104   52   54 am   BACKBONE|DICT|INTERRES
   105   54   55 1    
   106   54  120 1    
   107   55   56 1    
   108   55   57 1    
   109   55  121 1    
   110   56  122 1    
   111   56  123 1    
   112   56  124 1    
   113   57   58 2    
   114   57   59 am   BACKBONE|DICT|INTERRES
   115   59   60 1    
   116   59  125 1    
   117   60   61 1    
   118   60   62 1    
   119   60  126 1    
   120   61  127 1    
   121   61  128 1    
   122   61  129 1    
   123   62   63 2    
   124   62   64 am   BACKBONE|DICT|INTERRES
   125   64   65 1    
   126   64  130 1    
   127   65   66 1    
   128   65   69 1    
   129   65  131 1    
   130   66   67 am   BACKBONE|DICT|INTERRES
   131   66   68 2    
   132   67  132 1    
   133   67  133 1    
   134   69   70 1    
   135   69  134 1    
   136   69  135 1    
   137   70   71 1    
   138   71  136 1    
   139   71  137 1    
@<TRIPOS>SUBSTRUCTURE
     1 UNK         1 GROUP             0       ****    0 ROOT    
