@<TRIPOS>MOLECULE
3R136
137   139    1
SMALL
USER_CHARGES


@<TRIPOS>ATOM
      1 CA         25.6126   26.2430    5.8555 C.3       0 UNK        -0.1979 
      2 C          26.4631   25.3936    4.9225 C.2       0 UNK         0.4864 
      3 O          27.3723   25.9168    4.2827 O.2       0 UNK        -0.5359 
      4 N          26.1635   24.0902    4.8506 N.am      1 UNK        -0.4318 
      5 CA         26.7576   23.0883    3.9549 C.3       1 UNK         0.0824 
      6 C6         28.3135   22.9465    4.1011 C.3       12 UNK        -0.0944 
      7 S7         29.3821   23.4187    2.6890 S.3       12 UNK        -0.2672 
      8 C8         30.4972   24.6503    3.4341 C.3       12 UNK         0.0333 
      9 C9         31.6990   24.8854    2.5321 C.ar      12 UNK        -0.0807 
     10 C10        32.9154   24.2450    2.7881 C.ar      12 UNK        -0.0894 
     11 C11        34.0050   24.4193    1.9278 C.ar      12 UNK        -0.0804 
     12 C12        33.8639   25.2243    0.7939 C.ar      12 UNK        -0.0824 
     13 C13        32.6566   25.8782    0.5347 C.ar      12 UNK        -0.0762 
     14 C14        31.5843   25.7164    1.4157 C.ar      12 UNK        -0.0782 
     15 C15        32.5008   26.7181   -0.7227 C.3       12 UNK         0.0230 
     16 S16        33.1395   28.4067   -0.5115 S.3       12 UNK        -0.2608 
     17 C17        31.8420   29.1915    0.5021 C.3       12 UNK        -0.0989 
     18 CA         30.5552   29.5035   -0.3252 C.3       5 UNK         0.0716 
     19 N          29.4901   28.5137   -0.1114 N.am      5 UNK        -0.4135 
     20 C          28.7539   28.3275    0.9933 C.2       4 UNK         0.5031 
     21 O          28.9025   28.9719    2.0331 O.2       4 UNK        -0.5229 
     22 CA         27.6428   27.2600    0.9321 C.3       4 UNK         0.0329 
     23 CB         26.3749   27.8339    0.2721 C.3       4 UNK        -0.2001 
     24 N          28.0051   25.9647    0.3312 N.am      4 UNK        -0.4303 
     25 C          28.3940   25.6840   -0.9233 C.2       3 UNK         0.5044 
     26 O          28.5922   26.5394   -1.7870 O.2       3 UNK        -0.5152 
     27 CA         28.5997   24.2026   -1.2889 C.3       3 UNK         0.0319 
     28 CB         30.0839   23.8105   -1.2293 C.3       3 UNK        -0.2001 
     29 N          27.8257   23.2884   -0.4461 N.am      3 UNK        -0.4354 
     30 C          26.5308   23.0022   -0.6406 C.2       2 UNK         0.4964 
     31 O          25.8563   23.4660   -1.5607 O.2       2 UNK        -0.5047 
     32 CA         25.8741   22.0273    0.3525 C.3       2 UNK         0.0288 
     33 CB         26.0344   20.5770   -0.1323 C.3       2 UNK        -0.2113 
     34 N          26.3854   22.1403    1.7226 N.am      2 UNK        -0.4145 
     35 C          26.2015   23.2067    2.5145 C.2       1 UNK         0.5006 
     36 O          25.5983   24.2194    2.1489 O.2       1 UNK        -0.5103 
     37 C          30.0033   30.9333   -0.1358 C.2       5 UNK         0.5055 
     38 O          30.4294   31.6559    0.7641 O.2       5 UNK        -0.5220 
     39 N          28.9961   31.2872   -0.9517 N.am      6 UNK        -0.4450 
     40 CA         28.2362   32.5487   -0.9078 C.3       6 UNK         0.0367 
     41 CB         29.1238   33.7369   -1.3366 C.3       6 UNK        -0.1929 
     42 C          27.5374   32.7864    0.4493 C.2       6 UNK         0.5070 
     43 O          27.4156   33.9287    0.8933 O.2       6 UNK        -0.5237 
     44 N          27.1129   31.6830    1.0829 N.am      7 UNK        -0.4739 
     45 CA         26.5152   31.5797    2.4188 C.3       7 UNK         0.0276 
     46 CB         25.1690   32.3324    2.4893 C.3       7 UNK        -0.1927 
     47 C          27.4711   31.9511    3.5722 C.2       7 UNK         0.5013 
     48 O          26.9952   32.2443    4.6706 O.2       7 UNK        -0.5193 
     49 N          28.7926   31.9010    3.3370 N.am      8 UNK        -0.4253 
     50 CA         29.8124   32.0645    4.3787 C.3       8 UNK         0.0242 
     51 CB         31.1824   32.3389    3.7385 C.3       8 UNK        -0.2000 
     52 C          29.9040   30.8474    5.3145 C.2       8 UNK         0.4948 
     53 O          30.3000   31.0165    6.4683 O.2       8 UNK        -0.5275 
     54 N          29.5451   29.6566    4.8048 N.am      9 UNK        -0.4246 
     55 CA         29.5308   28.3634    5.5003 C.3       9 UNK         0.0261 
     56 CB         28.4738   28.3572    6.6247 C.3       9 UNK        -0.1959 
     57 C          30.9193   27.9002    5.9853 C.2       9 UNK         0.5033 
     58 O          31.0183   27.1873    6.9862 O.2       9 UNK        -0.5390 
     59 N          31.9668   28.3041    5.2617 N.am      10 UNK        -0.4215 
     60 CA         33.3644   27.9774    5.5099 C.3       10 UNK         0.0240 
     61 CB         33.9563   28.9522    6.5442 C.3       10 UNK        -0.1982 
     62 C          34.1067   28.0650    4.1751 C.2       10 UNK         0.4970 
     63 O          33.6417   28.7586    3.2675 O.2       10 UNK        -0.4916 
     64 N          35.2431   27.3678    4.0889 N.am      11 UNK        -0.4279 
     65 CA         36.0330   27.2107    2.8573 C.3       11 UNK         0.1003 
     66 C          36.8284   28.4711    2.4062 C.2       11 UNK         0.5709 
     67 N          36.9033   29.5331    3.1997 N.am      11 UNK        -0.7358 
     68 O          37.3905   28.4839    1.3137 O.2       11 UNK        -0.4999 
     69 C69        36.9520   25.9559    2.9030 C.3       12 UNK        -0.0954 
     70 S70        36.1919   24.4598    3.6304 S.3       12 UNK        -0.2268 
     71 C71        35.3248   23.7175    2.2131 C.3       12 UNK         0.0203 
     72 H72        25.4338   27.2234    5.4146 H         1 UNK         0.0888 
     73 H73        24.6445   25.7816    6.0492 H         1 UNK         0.0888 
     74 H74        26.1213   26.3824    6.8084 H         1 UNK         0.0888 
     75 H75        25.3877   23.7494    5.4011 H         1 UNK         0.3017 
     76 H76        26.3338   22.1537    4.3270 H         1 UNK         0.0873 
     77 H77        28.5426   21.8982    4.2983 H         1 UNK         0.0745 
     78 H78        28.6585   23.4648    4.9970 H         1 UNK         0.0745 
     79 H79        30.8254   24.3084    4.4168 H         1 UNK         0.0705 
     80 H80        29.9565   25.5842    3.5910 H         1 UNK         0.0705 
     81 H81        33.0148   23.6025    3.6524 H         1 UNK         0.1334 
     82 H82        34.6960   25.3494    0.1144 H         1 UNK         0.1417 
     83 H83        30.6447   26.2054    1.2139 H         1 UNK         0.1562 
     84 H84        31.4582   26.7540   -1.0384 H         1 UNK         0.0748 
     85 H85        33.0421   26.2436   -1.5426 H         1 UNK         0.0748 
     86 H86        31.6280   28.5729    1.3739 H         1 UNK         0.0940 
     87 H87        32.3047   30.0910    0.9107 H         1 UNK         0.0940 
     88 H88        30.8045   29.4459   -1.3861 H         1 UNK         0.0703 
     89 H89        29.2584   27.9217   -0.9090 H         1 UNK         0.3081 
     90 H90        27.3870   27.0315    1.9665 H         1 UNK         0.0719 
     91 H91        25.5541   27.1175    0.3154 H         1 UNK         0.0809 
     92 H92        26.5378   28.0914   -0.7749 H         1 UNK         0.0809 
     93 H93        26.0392   28.7362    0.7836 H         1 UNK         0.0809 
     94 H94        27.8875   25.1766    0.9540 H         1 UNK         0.2990 
     95 H95        28.2732   24.0850   -2.3247 H         1 UNK         0.0690 
     96 H96        30.2415   22.8117   -1.6366 H         1 UNK         0.0788 
     97 H97        30.4657   23.8127   -0.2093 H         1 UNK         0.0788 
     98 H98        30.6973   24.4953   -1.8159 H         1 UNK         0.0788 
     99 H99        28.3047   22.8684    0.3390 H         1 UNK         0.2993 
    100 H100       24.8073   22.2617    0.3758 H         1 UNK         0.0949 
    101 H101       27.0810   20.2700   -0.1525 H         1 UNK         0.0767 
    102 H102       25.4917   19.8816    0.5086 H         1 UNK         0.0767 
    103 H103       25.6402   20.4575   -1.1427 H         1 UNK         0.0767 
    104 H104       26.8940   21.3459    2.0844 H         1 UNK         0.3013 
    105 H105       28.6961   30.6216   -1.6514 H         1 UNK         0.3121 
    106 H106       27.4367   32.4533   -1.6442 H         1 UNK         0.0774 
    107 H107       28.5350   34.6496   -1.4358 H         1 UNK         0.0815 
    108 H108       29.9113   33.9372   -0.6093 H         1 UNK         0.0815 
    109 H109       29.5965   33.5521   -2.3010 H         1 UNK         0.0815 
    110 H110       27.2967   30.8014    0.6272 H         1 UNK         0.2987 
    111 H111       26.2990   30.5200    2.5633 H         1 UNK         0.0949 
    112 H112       25.3051   33.4131    2.4421 H         1 UNK         0.0806 
    113 H113       24.5070   32.0405    1.6741 H         1 UNK         0.0806 
    114 H114       24.6462   32.1138    3.4213 H         1 UNK         0.0806 
    115 H115       29.1251   31.6705    2.4058 H         1 UNK         0.3010 
    116 H116       29.5429   32.9316    4.9857 H         1 UNK         0.0829 
    117 H117       31.1442   33.1968    3.0670 H         1 UNK         0.0813 
    118 H118       31.9317   32.5552    4.5010 H         1 UNK         0.0813 
    119 H119       31.5409   31.4809    3.1679 H         1 UNK         0.0813 
    120 H120       29.2647   29.6177    3.8265 H         1 UNK         0.3038 
    121 H121       29.2226   27.6354    4.7509 H         1 UNK         0.0769 
    122 H122       28.7469   29.0246    7.4424 H         1 UNK         0.0811 
    123 H123       27.4977   28.6646    6.2502 H         1 UNK         0.0811 
    124 H124       28.3611   27.3578    7.0456 H         1 UNK         0.0811 
    125 H125       31.8146   28.8442    4.4184 H         1 UNK         0.3204 
    126 H126       33.4351   26.9523    5.8805 H         1 UNK         0.0748 
    127 H127       35.0055   28.7296    6.7415 H         1 UNK         0.0771 
    128 H128       33.8973   29.9860    6.2006 H         1 UNK         0.0771 
    129 H129       33.4282   28.8880    7.4958 H         1 UNK         0.0771 
    130 H130       35.5620   26.8339    4.8835 H         1 UNK         0.2980 
    131 H131       35.3133   27.0498    2.0561 H         1 UNK         0.0545 
    132 H132       37.4194   30.3428    2.8943 H         1 UNK         0.3459 
    133 H133       36.4365   29.5361    4.0917 H         1 UNK         0.3459 
    134 H134       37.3136   25.7147    1.9019 H         1 UNK         0.0616 
    135 H135       37.8418   26.1716    3.4972 H         1 UNK         0.0616 
    136 H136       35.9755   23.7254    1.3374 H         1 UNK         0.0634 
    137 H137       35.1271   22.6682    2.4365 H         1 UNK         0.0634 
@<TRIPOS>BOND
     1    1    2 1    
     2    1   72 1    
     3    1   73 1    
     4    1   74 1    
     5    2    3 2    
     6    2    4 am   BACKBONE|DICT|INTERRES
     7    4    5 1    
     8    4   75 1    
     9    5    6 1    
    10    5   35 1    
    11    5   76 1    
    12    6    7 1    
    13    6   77 1    
    14    6   78 1    
    15    7    8 1    
    16    8    9 1    
    17    8   79 1    
    18    8   80 1    
    19    9   10 ar   
    20    9   14 ar   
    21   10   11 ar   
    22   10   81 1    
    23   11   12 ar   
    24   11   71 1    
    25   12   13 ar   
    26   12   82 1    
    27   13   14 ar   
    28   13   15 1    
    29   14   83 1    
    30   15   16 1    
    31   15   84 1    
    32   15   85 1    
    33   16   17 1    
    34   17   18 1    
    35   17   86 1    
    36   17   87 1    
    37   18   19 1    
    38   18   37 1    
    39   18   88 1    
    40   19   20 am   BACKBONE|DICT|INTERRES
    41   19   89 1    
    42   20   21 2    
    43   20   22 1    
    44   22   23 1    
    45   22   24 1    
    46   22   90 1    
    47   23   91 1    
    48   23   92 1    
    49   23   93 1    
    50   24   25 am   BACKBONE|DICT|INTERRES
    51   24   94 1    
    52   25   26 2    
    53   25   27 1    
    54   27   28 1    
    55   27   29 1    
    56   27   95 1    
    57   28   96 1    
    58   28   97 1    
    59   28   98 1    
    60   29   30 am   BACKBONE|DICT|INTERRES
    61   29   99 1    
    62   30   31 2    
    63   30   32 1    
    64   32   33 1    
    65   32   34 1    
    66   32  100 1    
    67   33  101 1    
    68   33  102 1    
    69   33  103 1    
    70   34   35 am   BACKBONE|DICT|INTERRES
    71   34  104 1    
    72   35   36 2    
    73   37   38 2    
    74   37   39 am   BACKBONE|DICT|INTERRES
    75   39   40 1    
    76   39  105 1    
    77   40   41 1    
    78   40   42 1    
    79   40  106 1    
    80   41  107 1    
    81   41  108 1    
    82   41  109 1    
    83   42   43 2    
    84   42   44 am   BACKBONE|DICT|INTERRES
    85   44   45 1    
    86   44  110 1    
    87   45   46 1    
    88   45   47 1    
    89   45  111 1    
    90   46  112 1    
    91   46  113 1    
    92   46  114 1    
    93   47   48 2    
    94   47   49 am   BACKBONE|DICT|INTERRES
    95   49   50 1    
    96   49  115 1    
    97   50   51 1    
    98   50   52 1    
    99   50  116 1    
   100   51  117 1    
   101   51  118 1    
   102   51  119 1    
   103   52   53 2    
   104   52   54 am   BACKBONE|DICT|INTERRES
   105   54   55 1    
   106   54  120 1    
   107   55   56 1    
   108   55   57 1    
   109   55  121 1    
   110   56  122 1    
   111   56  123 1    
   112   56  124 1    
   113   57   58 2    
   114   57   59 am   BACKBONE|DICT|INTERRES
   115   59   60 1    
   116   59  125 1    
   117   60   61 1    
   118   60   62 1    
   119   60  126 1    
   120   61  127 1    
   121   61  128 1    
   122   61  129 1    
   123   62   63 2    
   124   62   64 am   BACKBONE|DICT|INTERRES
   125   64   65 1    
   126   64  130 1    
   127   65   66 1    
   128   65   69 1    
   129   65  131 1    
   130   66   67 am   BACKBONE|DICT|INTERRES
   131   66   68 2    
   132   67  132 1    
   133   67  133 1    
   134   69   70 1    
   135   69  134 1    
   136   69  135 1    
   137   70   71 1    
   138   71  136 1    
   139   71  137 1    
@<TRIPOS>SUBSTRUCTURE
     1 UNK         1 GROUP             0       ****    0 ROOT    
