@<TRIPOS>MOLECULE
3R136
137   139    1
SMALL
USER_CHARGES


@<TRIPOS>ATOM
      1 CA         31.8189   20.0645   -2.3741 C.3       0 UNK        -0.1979 
      2 C          31.4125   21.4829   -2.0014 C.2       0 UNK         0.4864 
      3 O          31.7697   22.4272   -2.7081 O.2       0 UNK        -0.5359 
      4 N          30.6776   21.6397   -0.8932 N.am      1 UNK        -0.4318 
      5 CA         30.1595   22.9224   -0.4059 C.3       1 UNK         0.0824 
      6 C6         29.6616   22.8311    1.0592 C.3       12 UNK        -0.0944 
      7 S7         30.9378   22.2390    2.2196 S.3       12 UNK        -0.2672 
      8 C8         31.6625   23.8094    2.8065 C.3       12 UNK         0.0333 
      9 C9         30.7610   24.6958    3.6712 C.ar      12 UNK        -0.0807 
     10 C10        31.1764   26.0086    3.9157 C.ar      12 UNK        -0.0894 
     11 C11        30.4149   26.8663    4.7126 C.ar      12 UNK        -0.0804 
     12 C12        29.2258   26.4014    5.2782 C.ar      12 UNK        -0.0824 
     13 C13        28.7899   25.0937    5.0467 C.ar      12 UNK        -0.0762 
     14 C14        29.5628   24.2454    4.2469 C.ar      12 UNK        -0.0782 
     15 C15        27.5014   24.5876    5.6866 C.3       12 UNK         0.0230 
     16 S16        26.0506   24.7802    4.5962 S.3       12 UNK        -0.2608 
     17 C17        25.8872   26.5955    4.5199 C.3       12 UNK        -0.0989 
     18 CA         26.4182   27.1384    3.1611 C.3       5 UNK         0.0716 
     19 N          25.4092   27.1314    2.0928 N.am      5 UNK        -0.4135 
     20 C          24.3193   27.9159    2.0209 C.2       4 UNK         0.5031 
     21 O          23.9689   28.6817    2.9198 O.2       4 UNK        -0.5229 
     22 CA         23.4870   27.8904    0.7225 C.3       4 UNK         0.0329 
     23 CB         23.6649   29.2112   -0.0465 C.3       4 UNK        -0.2001 
     24 N          23.8167   26.7818   -0.1734 N.am      4 UNK        -0.4303 
     25 C          23.4644   25.5045    0.0214 C.2       3 UNK         0.5044 
     26 O          22.7423   25.1261    0.9440 O.2       3 UNK        -0.5152 
     27 CA         24.0325   24.4681   -0.9674 C.3       3 UNK         0.0319 
     28 CB         22.9847   24.1202   -2.0374 C.3       3 UNK        -0.2001 
     29 N          25.2861   24.8593   -1.6303 N.am      3 UNK        -0.4354 
     30 C          26.4348   25.1528   -1.0049 C.2       2 UNK         0.4964 
     31 O          26.5490   25.2479    0.2195 O.2       2 UNK        -0.5047 
     32 CA         27.6611   25.4266   -1.8900 C.3       2 UNK         0.0288 
     33 CB         27.9273   26.9386   -1.9861 C.3       2 UNK        -0.2113 
     34 N          28.8390   24.7663   -1.3274 N.am      2 UNK        -0.4145 
     35 C          29.0153   23.4383   -1.3016 C.2       1 UNK         0.5006 
     36 O          28.2841   22.6386   -1.8941 O.2       1 UNK        -0.5103 
     37 C          27.1206   28.5122    3.2432 C.2       5 UNK         0.5055 
     38 O          27.2299   29.1125    4.3138 O.2       5 UNK        -0.5220 
     39 N          27.5864   28.9769    2.0785 N.am      6 UNK        -0.4450 
     40 CA         28.3335   30.2164    1.8850 C.3       6 UNK         0.0367 
     41 CB         27.3593   31.3693    1.5739 C.3       6 UNK        -0.1929 
     42 C          29.3796   29.9870    0.7842 C.2       6 UNK         0.5070 
     43 O          29.4780   30.7755   -0.1561 O.2       6 UNK        -0.5237 
     44 N          30.1154   28.8711    0.8992 N.am      7 UNK        -0.4739 
     45 CA         31.1144   28.4196   -0.0772 C.3       7 UNK         0.0276 
     46 CB         31.4961   26.9640    0.2414 C.3       7 UNK        -0.1927 
     47 C          32.3787   29.2984   -0.1303 C.2       7 UNK         0.5013 
     48 O          33.0753   29.2913   -1.1458 O.2       7 UNK        -0.5193 
     49 N          32.6546   30.0236    0.9578 N.am      8 UNK        -0.4253 
     50 CA         33.7807   30.9315    1.1382 C.3       8 UNK         0.0242 
     51 CB         35.0593   30.1260    1.4402 C.3       8 UNK        -0.2000 
     52 C          33.4368   31.8961    2.2805 C.2       8 UNK         0.4948 
     53 O          32.4614   31.6645    3.0015 O.2       8 UNK        -0.5275 
     54 N          34.2494   32.9517    2.4332 N.am      9 UNK        -0.4246 
     55 CA         34.1027   33.9855    3.4678 C.3       9 UNK         0.0261 
     56 CB         35.0796   35.1368    3.1773 C.3       9 UNK        -0.1959 
     57 C          34.2941   33.4683    4.9070 C.2       9 UNK         0.5033 
     58 O          33.7280   34.0472    5.8357 O.2       9 UNK        -0.5390 
     59 N          35.0669   32.3886    5.0608 N.am      10 UNK        -0.4215 
     60 CA         35.1995   31.5983    6.2779 C.3       10 UNK         0.0240 
     61 CB         36.5461   31.9003    6.9563 C.3       10 UNK        -0.1982 
     62 C          35.1059   30.1317    5.8508 C.2       10 UNK         0.4970 
     63 O          35.6978   29.7658    4.8326 O.2       10 UNK        -0.4916 
     64 N          34.3580   29.3297    6.6136 N.am      11 UNK        -0.4279 
     65 CA         34.0479   27.9288    6.2816 C.3       11 UNK         0.1003 
     66 C          35.2056   26.9204    6.5391 C.2       11 UNK         0.5709 
     67 N          36.2958   27.3085    7.1905 N.am      11 UNK        -0.7358 
     68 O          35.1156   25.7650    6.1313 O.2       11 UNK        -0.4999 
     69 C69        32.7311   27.4534    6.9522 C.3       12 UNK        -0.0954 
     70 S70        31.3206   28.5889    6.7051 S.3       12 UNK        -0.2268 
     71 C71        30.8755   28.2953    4.9633 C.3       12 UNK         0.0203 
     72 H72        31.4510   19.3329   -1.6548 H         1 UNK         0.0888 
     73 H73        32.9048   19.9835   -2.4146 H         1 UNK         0.0888 
     74 H74        31.4203   19.8058   -3.3548 H         1 UNK         0.0888 
     75 H75        30.4067   20.8297   -0.3545 H         1 UNK         0.3017 
     76 H76        30.9762   23.6466   -0.4484 H         1 UNK         0.0873 
     77 H77        28.8119   22.1488    1.1305 H         1 UNK         0.0745 
     78 H78        29.2915   23.7998    1.4012 H         1 UNK         0.0745 
     79 H79        32.5565   23.5708    3.3843 H         1 UNK         0.0705 
     80 H80        32.0023   24.3731    1.9366 H         1 UNK         0.0705 
     81 H81        32.1068   26.3615    3.4923 H         1 UNK         0.1334 
     82 H82        28.6467   27.0644    5.9062 H         1 UNK         0.1417 
     83 H83        29.2236   23.2321    4.0860 H         1 UNK         0.1562 
     84 H84        27.3179   25.1021    6.6313 H         1 UNK         0.0748 
     85 H85        27.6091   23.5316    5.9386 H         1 UNK         0.0748 
     86 H86        26.4102   27.0201    5.3763 H         1 UNK         0.0940 
     87 H87        24.8408   26.8616    4.6725 H         1 UNK         0.0940 
     88 H88        27.2075   26.4661    2.8187 H         1 UNK         0.0703 
     89 H89        25.6116   26.4976    1.3242 H         1 UNK         0.3081 
     90 H90        22.4374   27.8007    1.0110 H         1 UNK         0.0719 
     91 H91        23.3879   30.0655    0.5731 H         1 UNK         0.0809 
     92 H92        24.6986   29.3607   -0.3612 H         1 UNK         0.0809 
     93 H93        23.0340   29.2423   -0.9350 H         1 UNK         0.0809 
     94 H94        24.3983   26.9959   -0.9702 H         1 UNK         0.2990 
     95 H95        24.2429   23.5645   -0.3914 H         1 UNK         0.0690 
     96 H96        23.3247   23.3058   -2.6775 H         1 UNK         0.0788 
     97 H97        22.7572   24.9768   -2.6732 H         1 UNK         0.0788 
     98 H98        22.0488   23.7976   -1.5783 H         1 UNK         0.0788 
     99 H99        25.2824   24.8256   -2.6401 H         1 UNK         0.2993 
    100 H100       27.4840   25.0311   -2.8928 H         1 UNK         0.0949 
    101 H101       28.1148   27.3819   -1.0074 H         1 UNK         0.0767 
    102 H102       28.7900   27.1492   -2.6188 H         1 UNK         0.0767 
    103 H103       27.0738   27.4595   -2.4223 H         1 UNK         0.0767 
    104 H104       29.4613   25.3503   -0.7919 H         1 UNK         0.3013 
    105 H105       27.4547   28.4149    1.2491 H         1 UNK         0.3121 
    106 H106       28.8844   30.4628    2.7955 H         1 UNK         0.0774 
    107 H107       26.7947   31.1833    0.6595 H         1 UNK         0.0815 
    108 H108       26.6448   31.5128    2.3846 H         1 UNK         0.0815 
    109 H109       27.8951   32.3104    1.4443 H         1 UNK         0.0815 
    110 H110       29.9718   28.2823    1.7071 H         1 UNK         0.2987 
    111 H111       30.6534   28.4493   -1.0671 H         1 UNK         0.0949 
    112 H112       30.6177   26.3320    0.3619 H         1 UNK         0.0806 
    113 H113       32.1016   26.5379   -0.5599 H         1 UNK         0.0806 
    114 H114       32.0827   26.8967    1.1577 H         1 UNK         0.0806 
    115 H115       32.0010   30.0283    1.7312 H         1 UNK         0.3010 
    116 H116       33.9173   31.5173    0.2266 H         1 UNK         0.0829 
    117 H117       35.9089   30.7788    1.6426 H         1 UNK         0.0813 
    118 H118       35.3373   29.4933    0.5972 H         1 UNK         0.0813 
    119 H119       34.9275   29.4794    2.3081 H         1 UNK         0.0813 
    120 H120       35.0215   33.0655    1.7912 H         1 UNK         0.3038 
    121 H121       33.0852   34.3766    3.3997 H         1 UNK         0.0769 
    122 H122       34.9731   35.9338    3.9147 H         1 UNK         0.0811 
    123 H123       34.8942   35.5789    2.1981 H         1 UNK         0.0811 
    124 H124       36.1178   34.8038    3.2063 H         1 UNK         0.0811 
    125 H125       35.4531   31.9478    4.2360 H         1 UNK         0.3204 
    126 H126       34.3837   31.8239    6.9685 H         1 UNK         0.0748 
    127 H127       36.6634   31.3156    7.8695 H         1 UNK         0.0771 
    128 H128       37.3891   31.6653    6.3049 H         1 UNK         0.0771 
    129 H129       36.6207   32.9524    7.2322 H         1 UNK         0.0771 
    130 H130       33.9081   29.6984    7.4384 H         1 UNK         0.2980 
    131 H131       33.8800   27.8893    5.2038 H         1 UNK         0.0545 
    132 H132       36.3824   28.2551    7.5229 H         1 UNK         0.3459 
    133 H133       37.0399   26.6469    7.3458 H         1 UNK         0.3459 
    134 H134       32.8781   27.3494    8.0287 H         1 UNK         0.0616 
    135 H135       32.4498   26.4621    6.5927 H         1 UNK         0.0616 
    136 H136       30.0714   28.9802    4.6916 H         1 UNK         0.0634 
    137 H137       31.7223   28.5553    4.3264 H         1 UNK         0.0634 
@<TRIPOS>BOND
     1    1    2 1    
     2    1   72 1    
     3    1   73 1    
     4    1   74 1    
     5    2    3 2    
     6    2    4 am   BACKBONE|DICT|INTERRES
     7    4    5 1    
     8    4   75 1    
     9    5    6 1    
    10    5   35 1    
    11    5   76 1    
    12    6    7 1    
    13    6   77 1    
    14    6   78 1    
    15    7    8 1    
    16    8    9 1    
    17    8   79 1    
    18    8   80 1    
    19    9   10 ar   
    20    9   14 ar   
    21   10   11 ar   
    22   10   81 1    
    23   11   12 ar   
    24   11   71 1    
    25   12   13 ar   
    26   12   82 1    
    27   13   14 ar   
    28   13   15 1    
    29   14   83 1    
    30   15   16 1    
    31   15   84 1    
    32   15   85 1    
    33   16   17 1    
    34   17   18 1    
    35   17   86 1    
    36   17   87 1    
    37   18   19 1    
    38   18   37 1    
    39   18   88 1    
    40   19   20 am   BACKBONE|DICT|INTERRES
    41   19   89 1    
    42   20   21 2    
    43   20   22 1    
    44   22   23 1    
    45   22   24 1    
    46   22   90 1    
    47   23   91 1    
    48   23   92 1    
    49   23   93 1    
    50   24   25 am   BACKBONE|DICT|INTERRES
    51   24   94 1    
    52   25   26 2    
    53   25   27 1    
    54   27   28 1    
    55   27   29 1    
    56   27   95 1    
    57   28   96 1    
    58   28   97 1    
    59   28   98 1    
    60   29   30 am   BACKBONE|DICT|INTERRES
    61   29   99 1    
    62   30   31 2    
    63   30   32 1    
    64   32   33 1    
    65   32   34 1    
    66   32  100 1    
    67   33  101 1    
    68   33  102 1    
    69   33  103 1    
    70   34   35 am   BACKBONE|DICT|INTERRES
    71   34  104 1    
    72   35   36 2    
    73   37   38 2    
    74   37   39 am   BACKBONE|DICT|INTERRES
    75   39   40 1    
    76   39  105 1    
    77   40   41 1    
    78   40   42 1    
    79   40  106 1    
    80   41  107 1    
    81   41  108 1    
    82   41  109 1    
    83   42   43 2    
    84   42   44 am   BACKBONE|DICT|INTERRES
    85   44   45 1    
    86   44  110 1    
    87   45   46 1    
    88   45   47 1    
    89   45  111 1    
    90   46  112 1    
    91   46  113 1    
    92   46  114 1    
    93   47   48 2    
    94   47   49 am   BACKBONE|DICT|INTERRES
    95   49   50 1    
    96   49  115 1    
    97   50   51 1    
    98   50   52 1    
    99   50  116 1    
   100   51  117 1    
   101   51  118 1    
   102   51  119 1    
   103   52   53 2    
   104   52   54 am   BACKBONE|DICT|INTERRES
   105   54   55 1    
   106   54  120 1    
   107   55   56 1    
   108   55   57 1    
   109   55  121 1    
   110   56  122 1    
   111   56  123 1    
   112   56  124 1    
   113   57   58 2    
   114   57   59 am   BACKBONE|DICT|INTERRES
   115   59   60 1    
   116   59  125 1    
   117   60   61 1    
   118   60   62 1    
   119   60  126 1    
   120   61  127 1    
   121   61  128 1    
   122   61  129 1    
   123   62   63 2    
   124   62   64 am   BACKBONE|DICT|INTERRES
   125   64   65 1    
   126   64  130 1    
   127   65   66 1    
   128   65   69 1    
   129   65  131 1    
   130   66   67 am   BACKBONE|DICT|INTERRES
   131   66   68 2    
   132   67  132 1    
   133   67  133 1    
   134   69   70 1    
   135   69  134 1    
   136   69  135 1    
   137   70   71 1    
   138   71  136 1    
   139   71  137 1    
@<TRIPOS>SUBSTRUCTURE
     1 UNK         1 GROUP             0       ****    0 ROOT    
