@<TRIPOS>MOLECULE
3R136
137   139    1
SMALL
USER_CHARGES


@<TRIPOS>ATOM
      1 CA         29.6724   19.8137   -0.8682 C.3       0 UNK        -0.1979 
      2 C          29.6669   21.1133   -1.6598 C.2       0 UNK         0.4864 
      3 O          29.6184   21.0803   -2.8906 O.2       0 UNK        -0.5359 
      4 N          29.7218   22.2555   -0.9634 N.am      1 UNK        -0.4318 
      5 CA         29.6640   23.5957   -1.5518 C.3       1 UNK         0.0824 
      6 C6         30.1984   24.6725   -0.5741 C.3       12 UNK        -0.0944 
      7 S7         32.0182   24.6360   -0.4704 S.3       12 UNK        -0.2672 
      8 C8         32.3234   23.6265    1.0165 C.3       12 UNK         0.0333 
      9 C9         31.9607   24.3474    2.3080 C.ar      12 UNK        -0.0807 
     10 C10        32.5967   25.5444    2.6468 C.ar      12 UNK        -0.0894 
     11 C11        32.2942   26.1988    3.8442 C.ar      12 UNK        -0.0804 
     12 C12        31.3531   25.6438    4.7158 C.ar      12 UNK        -0.0824 
     13 C13        30.7216   24.4373    4.3953 C.ar      12 UNK        -0.0762 
     14 C14        31.0248   23.7973    3.1888 C.ar      12 UNK        -0.0782 
     15 C15        29.7355   23.8002    5.3626 C.3       12 UNK         0.0230 
     16 S16        28.0257   23.8980    4.7506 S.3       12 UNK        -0.2608 
     17 C17        27.6417   25.6677    4.9870 C.3       12 UNK        -0.0989 
     18 CA         27.6840   26.4970    3.6708 C.3       5 UNK         0.0716 
     19 N          26.9023   25.9181    2.5691 N.am      5 UNK        -0.4135 
     20 C          25.6026   25.5892    2.5701 C.2       4 UNK         0.5031 
     21 O          24.8424   25.7654    3.5236 O.2       4 UNK        -0.5229 
     22 CA         25.0738   24.9966    1.2490 C.3       4 UNK         0.0329 
     23 CB         23.5373   24.8489    1.2217 C.3       4 UNK        -0.2001 
     24 N          25.5496   25.7413    0.0744 N.am      4 UNK        -0.4303 
     25 C          25.3434   27.0438   -0.1873 C.2       3 UNK         0.5044 
     26 O          24.7039   27.7868    0.5551 O.2       3 UNK        -0.5152 
     27 CA         25.9836   27.6500   -1.4528 C.3       3 UNK         0.0319 
     28 CB         27.0393   28.6999   -1.0650 C.3       3 UNK        -0.2001 
     29 N          26.6035   26.6611   -2.3373 N.am      3 UNK        -0.4354 
     30 C          25.9363   25.7984   -3.1166 C.2       2 UNK         0.4964 
     31 O          24.7122   25.8000   -3.2476 O.2       2 UNK        -0.5047 
     32 CA         26.7708   24.7319   -3.8505 C.3       2 UNK         0.0288 
     33 CB         27.0146   25.1531   -5.3090 C.3       2 UNK        -0.2113 
     34 N          28.0600   24.4163   -3.2185 N.am      2 UNK        -0.4145 
     35 C          28.2204   23.9092   -1.9865 C.2       1 UNK         0.5006 
     36 O          27.2931   23.7233   -1.1938 O.2       1 UNK        -0.5103 
     37 C          27.3751   27.9884    3.9458 C.2       5 UNK         0.5055 
     38 O          28.0003   28.5613    4.8407 O.2       5 UNK        -0.5220 
     39 N          26.4544   28.6156    3.1953 N.am      6 UNK        -0.4450 
     40 CA         26.0495   30.0133    3.3699 C.3       6 UNK         0.0367 
     41 CB         24.6540   30.2265    2.7559 C.3       6 UNK        -0.1929 
     42 C          27.0967   30.9814    2.7909 C.2       6 UNK         0.5070 
     43 O          26.9051   31.5184    1.6991 O.2       6 UNK        -0.5237 
     44 N          28.1901   31.1697    3.5422 N.am      7 UNK        -0.4739 
     45 CA         29.3207   32.0654    3.2660 C.3       7 UNK         0.0276 
     46 CB         28.8746   33.5428    3.3167 C.3       7 UNK        -0.1927 
     47 C          30.0783   31.7081    1.9722 C.2       7 UNK         0.5013 
     48 O          30.4573   32.5999    1.2104 O.2       7 UNK        -0.5193 
     49 N          30.3060   30.4026    1.7609 N.am      8 UNK        -0.4253 
     50 CA         31.1113   29.8607    0.6578 C.3       8 UNK         0.0242 
     51 CB         30.9655   28.3298    0.6303 C.3       8 UNK        -0.2000 
     52 C          32.5992   30.2567    0.7463 C.2       8 UNK         0.4948 
     53 O          33.2559   30.4021   -0.2850 O.2       8 UNK        -0.5275 
     54 N          33.0823   30.4388    1.9787 N.am      9 UNK        -0.4246 
     55 CA         34.4014   30.9060    2.3847 C.3       9 UNK         0.0261 
     56 CB         35.4819   29.8467    2.0844 C.3       9 UNK        -0.1959 
     57 C          34.3069   31.2096    3.8873 C.2       9 UNK         0.5033 
     58 O          33.2905   30.8843    4.5132 O.2       9 UNK        -0.5390 
     59 N          35.3617   31.8037    4.4574 N.am      10 UNK        -0.4215 
     60 CA         35.4711   32.1396    5.8827 C.3       10 UNK         0.0240 
     61 CB         36.5103   33.2650    6.0504 C.3       10 UNK        -0.1982 
     62 C          35.7831   30.9054    6.7579 C.2       10 UNK         0.4970 
     63 O          36.7899   30.8905    7.4691 O.2       10 UNK        -0.4916 
     64 N          34.9280   29.8818    6.6666 N.am      11 UNK        -0.4279 
     65 CA         35.0223   28.6208    7.4152 C.3       11 UNK         0.1003 
     66 C          34.7098   28.8005    8.9255 C.2       11 UNK         0.5709 
     67 N          35.3045   27.9815    9.7825 N.am      11 UNK        -0.7358 
     68 O          33.9089   29.6451    9.3240 O.2       11 UNK        -0.4999 
     69 C69        34.1317   27.5143    6.7902 C.3       12 UNK        -0.0954 
     70 S70        34.5692   27.1926    5.0473 S.3       12 UNK        -0.2268 
     71 C71        32.9972   27.5011    4.1847 C.3       12 UNK         0.0203 
     72 H72        30.5248   19.2007   -1.1597 H         1 UNK         0.0888 
     73 H73        29.7335   19.9899    0.2056 H         1 UNK         0.0888 
     74 H74        28.7620   19.2494   -1.0679 H         1 UNK         0.0888 
     75 H75        29.7112   22.2206    0.0445 H         1 UNK         0.3017 
     76 H76        30.2925   23.6005   -2.4458 H         1 UNK         0.0873 
     77 H77        29.9307   25.6738   -0.9170 H         1 UNK         0.0745 
     78 H78        29.7575   24.5672    0.4190 H         1 UNK         0.0745 
     79 H79        31.7901   22.6796    0.9289 H         1 UNK         0.0705 
     80 H80        33.3838   23.3731    1.0488 H         1 UNK         0.0705 
     81 H81        33.3319   25.9665    1.9749 H         1 UNK         0.1334 
     82 H82        31.1258   26.1435    5.6476 H         1 UNK         0.1417 
     83 H83        30.5377   22.8624    2.9471 H         1 UNK         0.1562 
     84 H84        29.8004   24.2568    6.3515 H         1 UNK         0.0748 
     85 H85        29.9983   22.7500    5.4979 H         1 UNK         0.0748 
     86 H86        28.3346   26.0831    5.7211 H         1 UNK         0.0940 
     87 H87        26.6553   25.7349    5.4489 H         1 UNK         0.0940 
     88 H88        28.7169   26.4838    3.3191 H         1 UNK         0.0703 
     89 H89        27.4240   25.7326    1.7254 H         1 UNK         0.3081 
     90 H90        25.5015   23.9957    1.1712 H         1 UNK         0.0719 
     91 H91        23.0341   25.8086    1.3439 H         1 UNK         0.0809 
     92 H92        23.1986   24.4097    0.2834 H         1 UNK         0.0809 
     93 H93        23.1939   24.1981    2.0268 H         1 UNK         0.0809 
     94 H94        26.1063   25.1969   -0.5780 H         1 UNK         0.2990 
     95 H95        25.1881   28.1543   -2.0055 H         1 UNK         0.0690 
     96 H96        27.4659   29.1814   -1.9451 H         1 UNK         0.0788 
     97 H97        27.8542   28.2576   -0.4938 H         1 UNK         0.0788 
     98 H98        26.6033   29.4882   -0.4487 H         1 UNK         0.0788 
     99 H99        27.6104   26.5992   -2.3142 H         1 UNK         0.2993 
    100 H100       26.1782   23.8143   -3.8538 H         1 UNK         0.0949 
    101 H101       26.0729   25.3676   -5.8170 H         1 UNK         0.0767 
    102 H102       27.6309   26.0510   -5.3727 H         1 UNK         0.0767 
    103 H103       27.5104   24.3630   -5.8736 H         1 UNK         0.0767 
    104 H104       28.8787   24.5429   -3.7968 H         1 UNK         0.3013 
    105 H105       25.9771   28.1012    2.4656 H         1 UNK         0.3121 
    106 H106       25.9626   30.2177    4.4395 H         1 UNK         0.0774 
    107 H107       24.6620   30.1081    1.6724 H         1 UNK         0.0815 
    108 H108       24.2901   31.2331    2.9652 H         1 UNK         0.0815 
    109 H109       23.9261   29.5255    3.1645 H         1 UNK         0.0815 
    110 H110       28.2693   30.5986    4.3781 H         1 UNK         0.2987 
    111 H111       30.0350   31.9148    4.0776 H         1 UNK         0.0949 
    112 H112       28.1964   33.7902    2.4994 H         1 UNK         0.0806 
    113 H113       28.3688   33.7731    4.2543 H         1 UNK         0.0806 
    114 H114       29.7319   34.2129    3.2404 H         1 UNK         0.0806 
    115 H115       29.9371   29.7424    2.4293 H         1 UNK         0.3010 
    116 H116       30.7161   30.2637   -0.2772 H         1 UNK         0.0829 
    117 H117       31.5369   27.8968   -0.1922 H         1 UNK         0.0813 
    118 H118       31.3270   27.8735    1.5510 H         1 UNK         0.0813 
    119 H119       29.9286   28.0270    0.4975 H         1 UNK         0.0813 
    120 H120       32.4584   30.3350    2.7711 H         1 UNK         0.3038 
    121 H121       34.6253   31.8324    1.8523 H         1 UNK         0.0769 
    122 H122       35.3084   28.9206    2.6313 H         1 UNK         0.0811 
    123 H123       36.4737   30.2045    2.3620 H         1 UNK         0.0811 
    124 H124       35.5206   29.6023    1.0230 H         1 UNK         0.0811 
    125 H125       36.1692   32.0093    3.8862 H         1 UNK         0.3204 
    126 H126       34.5091   32.5305    6.2218 H         1 UNK         0.0748 
    127 H127       36.5864   33.5754    7.0935 H         1 UNK         0.0771 
    128 H128       37.5042   32.9496    5.7300 H         1 UNK         0.0771 
    129 H129       36.2356   34.1480    5.4729 H         1 UNK         0.0771 
    130 H130       34.1310   29.9863    6.0476 H         1 UNK         0.2980 
    131 H131       36.0598   28.2882    7.3401 H         1 UNK         0.0545 
    132 H132       35.1042   28.0726   10.7663 H         1 UNK         0.3459 
    133 H133       35.9537   27.2775    9.4668 H         1 UNK         0.3459 
    134 H134       34.2522   26.5758    7.3341 H         1 UNK         0.0616 
    135 H135       33.0765   27.7786    6.8747 H         1 UNK         0.0616 
    136 H136       32.3473   28.1564    4.7660 H         1 UNK         0.0634 
    137 H137       33.2133   28.0385    3.2630 H         1 UNK         0.0634 
@<TRIPOS>BOND
     1    1    2 1    
     2    1   72 1    
     3    1   73 1    
     4    1   74 1    
     5    2    3 2    
     6    2    4 am   BACKBONE|DICT|INTERRES
     7    4    5 1    
     8    4   75 1    
     9    5    6 1    
    10    5   35 1    
    11    5   76 1    
    12    6    7 1    
    13    6   77 1    
    14    6   78 1    
    15    7    8 1    
    16    8    9 1    
    17    8   79 1    
    18    8   80 1    
    19    9   10 ar   
    20    9   14 ar   
    21   10   11 ar   
    22   10   81 1    
    23   11   12 ar   
    24   11   71 1    
    25   12   13 ar   
    26   12   82 1    
    27   13   14 ar   
    28   13   15 1    
    29   14   83 1    
    30   15   16 1    
    31   15   84 1    
    32   15   85 1    
    33   16   17 1    
    34   17   18 1    
    35   17   86 1    
    36   17   87 1    
    37   18   19 1    
    38   18   37 1    
    39   18   88 1    
    40   19   20 am   BACKBONE|DICT|INTERRES
    41   19   89 1    
    42   20   21 2    
    43   20   22 1    
    44   22   23 1    
    45   22   24 1    
    46   22   90 1    
    47   23   91 1    
    48   23   92 1    
    49   23   93 1    
    50   24   25 am   BACKBONE|DICT|INTERRES
    51   24   94 1    
    52   25   26 2    
    53   25   27 1    
    54   27   28 1    
    55   27   29 1    
    56   27   95 1    
    57   28   96 1    
    58   28   97 1    
    59   28   98 1    
    60   29   30 am   BACKBONE|DICT|INTERRES
    61   29   99 1    
    62   30   31 2    
    63   30   32 1    
    64   32   33 1    
    65   32   34 1    
    66   32  100 1    
    67   33  101 1    
    68   33  102 1    
    69   33  103 1    
    70   34   35 am   BACKBONE|DICT|INTERRES
    71   34  104 1    
    72   35   36 2    
    73   37   38 2    
    74   37   39 am   BACKBONE|DICT|INTERRES
    75   39   40 1    
    76   39  105 1    
    77   40   41 1    
    78   40   42 1    
    79   40  106 1    
    80   41  107 1    
    81   41  108 1    
    82   41  109 1    
    83   42   43 2    
    84   42   44 am   BACKBONE|DICT|INTERRES
    85   44   45 1    
    86   44  110 1    
    87   45   46 1    
    88   45   47 1    
    89   45  111 1    
    90   46  112 1    
    91   46  113 1    
    92   46  114 1    
    93   47   48 2    
    94   47   49 am   BACKBONE|DICT|INTERRES
    95   49   50 1    
    96   49  115 1    
    97   50   51 1    
    98   50   52 1    
    99   50  116 1    
   100   51  117 1    
   101   51  118 1    
   102   51  119 1    
   103   52   53 2    
   104   52   54 am   BACKBONE|DICT|INTERRES
   105   54   55 1    
   106   54  120 1    
   107   55   56 1    
   108   55   57 1    
   109   55  121 1    
   110   56  122 1    
   111   56  123 1    
   112   56  124 1    
   113   57   58 2    
   114   57   59 am   BACKBONE|DICT|INTERRES
   115   59   60 1    
   116   59  125 1    
   117   60   61 1    
   118   60   62 1    
   119   60  126 1    
   120   61  127 1    
   121   61  128 1    
   122   61  129 1    
   123   62   63 2    
   124   62   64 am   BACKBONE|DICT|INTERRES
   125   64   65 1    
   126   64  130 1    
   127   65   66 1    
   128   65   69 1    
   129   65  131 1    
   130   66   67 am   BACKBONE|DICT|INTERRES
   131   66   68 2    
   132   67  132 1    
   133   67  133 1    
   134   69   70 1    
   135   69  134 1    
   136   69  135 1    
   137   70   71 1    
   138   71  136 1    
   139   71  137 1    
@<TRIPOS>SUBSTRUCTURE
     1 UNK         1 GROUP             0       ****    0 ROOT    
