@<TRIPOS>MOLECULE
3R136
137   139    1
SMALL
USER_CHARGES


@<TRIPOS>ATOM
      1 CA         28.6668   26.1856    3.2610 C.3       0 UNK        -0.1979 
      2 C          28.2657   24.7414    3.0120 C.2       0 UNK         0.4864 
      3 O          27.4325   24.2040    3.7445 O.2       0 UNK        -0.5359 
      4 N          28.8432   24.1068    1.9835 N.am      1 UNK        -0.4318 
      5 CA         28.5387   22.7352    1.5621 C.3       1 UNK         0.0824 
      6 C6         29.6846   22.1190    0.7215 C.3       12 UNK        -0.0944 
      7 S7         31.1735   21.8367    1.7369 S.3       12 UNK        -0.2672 
      8 C8         32.4384   22.8065    0.8586 C.3       12 UNK         0.0333 
      9 C9         32.2055   24.3080    0.9596 C.ar      12 UNK        -0.0807 
     10 C10        32.2990   24.9544    2.1960 C.ar      12 UNK        -0.0894 
     11 C11        32.1334   26.3395    2.2880 C.ar      12 UNK        -0.0804 
     12 C12        31.8845   27.0814    1.1298 C.ar      12 UNK        -0.0824 
     13 C13        31.7916   26.4462   -0.1135 C.ar      12 UNK        -0.0762 
     14 C14        31.9437   25.0585   -0.1903 C.ar      12 UNK        -0.0782 
     15 C15        31.5705   27.2592   -1.3824 C.3       12 UNK         0.0230 
     16 S16        30.0135   28.1975   -1.3532 S.3       12 UNK        -0.2608 
     17 C17        28.7785   26.8597   -1.2321 C.3       12 UNK        -0.0989 
     18 CA         27.3396   27.3621   -1.5395 C.3       5 UNK         0.0716 
     19 N          26.4815   26.2939   -2.0461 N.am      5 UNK        -0.4135 
     20 C          26.4372   25.8933   -3.3241 C.2       4 UNK         0.5031 
     21 O          27.1476   26.3726   -4.2094 O.2       4 UNK        -0.5229 
     22 CA         25.4536   24.7677   -3.7041 C.3       4 UNK         0.0329 
     23 CB         26.2162   23.4657   -4.0009 C.3       4 UNK        -0.2001 
     24 N          24.4427   24.4975   -2.6826 N.am      4 UNK        -0.4303 
     25 C          23.4238   25.3078   -2.3649 C.2       3 UNK         0.5044 
     26 O          23.1548   26.3374   -2.9846 O.2       3 UNK        -0.5152 
     27 CA         22.5653   24.9176   -1.1442 C.3       3 UNK         0.0319 
     28 CB         21.1624   24.4745   -1.5920 C.3       3 UNK        -0.2001 
     29 N          23.1436   23.8699   -0.2910 N.am      3 UNK        -0.4354 
     30 C          24.2902   23.9624    0.3984 C.2       2 UNK         0.4964 
     31 O          25.0135   24.9601    0.3786 O.2       2 UNK        -0.5047 
     32 CA         24.6837   22.7354    1.2451 C.3       2 UNK         0.0288 
     33 CB         24.3140   21.3895    0.5786 C.3       2 UNK        -0.2113 
     34 N          26.0984   22.7476    1.6337 N.am      2 UNK        -0.4145 
     35 C          27.1763   22.6775    0.8383 C.2       1 UNK         0.5006 
     36 O          27.1301   22.5819   -0.3906 O.2       1 UNK        -0.5103 
     37 C          26.6421   28.0737   -0.3609 C.2       5 UNK         0.5055 
     38 O          25.4187   27.9966   -0.2259 O.2       5 UNK        -0.5220 
     39 N          27.4293   28.7789    0.4546 N.am      6 UNK        -0.4450 
     40 CA         27.0330   29.5061    1.6533 C.3       6 UNK         0.0367 
     41 CB         26.4632   30.8843    1.2699 C.3       6 UNK        -0.1929 
     42 C          28.2734   29.6436    2.5450 C.2       6 UNK         0.5070 
     43 O          29.3936   29.4337    2.0711 O.2       6 UNK        -0.5237 
     44 N          28.0567   29.9787    3.8218 N.am      7 UNK        -0.4739 
     45 CA         29.1220   30.2072    4.8013 C.3       7 UNK         0.0276 
     46 CB         28.5032   30.3126    6.2045 C.3       7 UNK        -0.1927 
     47 C          29.9449   31.4669    4.4756 C.2       7 UNK         0.5013 
     48 O          29.3959   32.4460    3.9628 O.2       7 UNK        -0.5193 
     49 N          31.2362   31.4252    4.8114 N.am      8 UNK        -0.4253 
     50 CA         32.2023   32.5023    4.6262 C.3       8 UNK         0.0242 
     51 CB         32.8120   32.4120    3.2149 C.3       8 UNK        -0.2000 
     52 C          33.2842   32.3562    5.6991 C.2       8 UNK         0.4948 
     53 O          33.4506   31.2621    6.2450 O.2       8 UNK        -0.5275 
     54 N          34.0295   33.4406    5.9550 N.am      9 UNK        -0.4246 
     55 CA         35.1040   33.5080    6.9563 C.3       9 UNK         0.0261 
     56 CB         35.6736   34.9350    7.0025 C.3       9 UNK        -0.1959 
     57 C          36.2341   32.4839    6.7426 C.2       9 UNK         0.5033 
     58 O          36.8050   32.0011    7.7215 O.2       9 UNK        -0.5390 
     59 N          36.4979   32.1299    5.4764 N.am      10 UNK        -0.4215 
     60 CA         37.4366   31.0802    5.0686 C.3       10 UNK         0.0240 
     61 CB         37.5729   31.0959    3.5371 C.3       10 UNK        -0.1982 
     62 C          37.0509   29.6696    5.5571 C.2       10 UNK         0.4970 
     63 O          37.9384   28.8274    5.6986 O.2       10 UNK        -0.4916 
     64 N          35.7563   29.4411    5.8138 N.am      11 UNK        -0.4279 
     65 CA         35.2170   28.2034    6.3937 C.3       11 UNK         0.1003 
     66 C          35.1758   28.2215    7.9508 C.2       11 UNK         0.5709 
     67 N          35.6156   29.2771    8.6286 N.am      11 UNK        -0.7358 
     68 O          34.7540   27.2436    8.5639 O.2       11 UNK        -0.4999 
     69 C69        33.8353   27.8458    5.7820 C.3       12 UNK        -0.0954 
     70 S70        33.9316   27.5552    3.9849 S.3       12 UNK        -0.2268 
     71 C71        32.2276   27.0297    3.6393 C.3       12 UNK         0.0203 
     72 H72        29.2207   26.6035    2.4210 H         1 UNK         0.0888 
     73 H73        29.2866   26.2564    4.1539 H         1 UNK         0.0888 
     74 H74        27.7775   26.7952    3.4151 H         1 UNK         0.0888 
     75 H75        29.5487   24.5803    1.4374 H         1 UNK         0.3017 
     76 H76        28.4363   22.1198    2.4594 H         1 UNK         0.0873 
     77 H77        29.9193   22.7482   -0.1390 H         1 UNK         0.0745 
     78 H78        29.3857   21.1501    0.3165 H         1 UNK         0.0745 
     79 H79        33.4146   22.5737    1.2862 H         1 UNK         0.0705 
     80 H80        32.4781   22.4821   -0.1825 H         1 UNK         0.0705 
     81 H81        32.5072   24.3770    3.0866 H         1 UNK         0.1334 
     82 H82        31.7641   28.1549    1.1951 H         1 UNK         0.1417 
     83 H83        31.8847   24.5644   -1.1509 H         1 UNK         0.1562 
     84 H84        31.5816   26.6204   -2.2669 H         1 UNK         0.0748 
     85 H85        32.3988   27.9590   -1.5006 H         1 UNK         0.0748 
     86 H86        28.8348   26.3819   -0.2522 H         1 UNK         0.0940 
     87 H87        29.0680   26.0920   -1.9519 H         1 UNK         0.0940 
     88 H88        27.4001   28.1208   -2.3231 H         1 UNK         0.0703 
     89 H89        25.8431   25.8952   -1.3638 H         1 UNK         0.3081 
     90 H90        24.9401   25.0798   -4.6160 H         1 UNK         0.0719 
     91 H91        26.7474   23.1004   -3.1208 H         1 UNK         0.0809 
     92 H92        25.5427   22.6778   -4.3388 H         1 UNK         0.0809 
     93 H93        26.9562   23.6163   -4.7882 H         1 UNK         0.0809 
     94 H94        24.5892   23.6784   -2.1106 H         1 UNK         0.2990 
     95 H95        22.4616   25.8165   -0.5327 H         1 UNK         0.0690 
     96 H96        20.5118   24.2885   -0.7371 H         1 UNK         0.0788 
     97 H97        21.1994   23.5647   -2.1925 H         1 UNK         0.0788 
     98 H98        20.6827   25.2449   -2.1977 H         1 UNK         0.0788 
     99 H99        22.6157   23.0117   -0.2212 H         1 UNK         0.2993 
    100 H100       24.1183   22.8164    2.1747 H         1 UNK         0.0949 
    101 H101       23.2341   21.2653    0.4937 H         1 UNK         0.0767 
    102 H102       24.7365   21.3010   -0.4232 H         1 UNK         0.0767 
    103 H103       24.6797   20.5471    1.1661 H         1 UNK         0.0767 
    104 H104       26.2806   22.9631    2.6094 H         1 UNK         0.3013 
    105 H105       28.4336   28.7775    0.2972 H         1 UNK         0.3121 
    106 H106       26.2795   28.9270    2.1916 H         1 UNK         0.0774 
    107 H107       25.5809   30.7883    0.6371 H         1 UNK         0.0815 
    108 H108       27.1976   31.4854    0.7322 H         1 UNK         0.0815 
    109 H109       26.1654   31.4479    2.1548 H         1 UNK         0.0815 
    110 H110       27.1128   30.1681    4.1265 H         1 UNK         0.2987 
    111 H111       29.7878   29.3414    4.7792 H         1 UNK         0.0949 
    112 H112       27.8168   31.1571    6.2801 H         1 UNK         0.0806 
    113 H113       27.9542   29.4077    6.4662 H         1 UNK         0.0806 
    114 H114       29.2747   30.4518    6.9631 H         1 UNK         0.0806 
    115 H115       31.6119   30.6258    5.3070 H         1 UNK         0.3010 
    116 H116       31.7077   33.4671    4.7597 H         1 UNK         0.0829 
    117 H117       32.0443   32.5027    2.4460 H         1 UNK         0.0813 
    118 H118       33.5348   33.2104    3.0432 H         1 UNK         0.0813 
    119 H119       33.3267   31.4625    3.0594 H         1 UNK         0.0813 
    120 H120       33.8297   34.2943    5.4526 H         1 UNK         0.3038 
    121 H121       34.6542   33.2894    7.9272 H         1 UNK         0.0769 
    122 H122       36.1071   35.2294    6.0459 H         1 UNK         0.0811 
    123 H123       36.4594   35.0172    7.7551 H         1 UNK         0.0811 
    124 H124       34.9041   35.6624    7.2619 H         1 UNK         0.0811 
    125 H125       35.9772   32.5845    4.7408 H         1 UNK         0.3204 
    126 H126       38.4093   31.3195    5.5035 H         1 UNK         0.0748 
    127 H127       37.9280   32.0623    3.1787 H         1 UNK         0.0771 
    128 H128       38.2901   30.3453    3.2014 H         1 UNK         0.0771 
    129 H129       36.6231   30.8811    3.0452 H         1 UNK         0.0771 
    130 H130       35.0865   30.1975    5.7292 H         1 UNK         0.2980 
    131 H131       35.8922   27.3835    6.1426 H         1 UNK         0.0545 
    132 H132       35.5843   29.2583    9.6352 H         1 UNK         0.3459 
    133 H133       35.9831   30.0918    8.1533 H         1 UNK         0.3459 
    134 H134       33.4390   26.9384    6.2413 H         1 UNK         0.0616 
    135 H135       33.1070   28.6339    5.9766 H         1 UNK         0.0616 
    136 H136       31.5687   27.8991    3.6678 H         1 UNK         0.0634 
    137 H137       31.8852   26.3528    4.4234 H         1 UNK         0.0634 
@<TRIPOS>BOND
     1    1    2 1    
     2    1   72 1    
     3    1   73 1    
     4    1   74 1    
     5    2    3 2    
     6    2    4 am   BACKBONE|DICT|INTERRES
     7    4    5 1    
     8    4   75 1    
     9    5    6 1    
    10    5   35 1    
    11    5   76 1    
    12    6    7 1    
    13    6   77 1    
    14    6   78 1    
    15    7    8 1    
    16    8    9 1    
    17    8   79 1    
    18    8   80 1    
    19    9   10 ar   
    20    9   14 ar   
    21   10   11 ar   
    22   10   81 1    
    23   11   12 ar   
    24   11   71 1    
    25   12   13 ar   
    26   12   82 1    
    27   13   14 ar   
    28   13   15 1    
    29   14   83 1    
    30   15   16 1    
    31   15   84 1    
    32   15   85 1    
    33   16   17 1    
    34   17   18 1    
    35   17   86 1    
    36   17   87 1    
    37   18   19 1    
    38   18   37 1    
    39   18   88 1    
    40   19   20 am   BACKBONE|DICT|INTERRES
    41   19   89 1    
    42   20   21 2    
    43   20   22 1    
    44   22   23 1    
    45   22   24 1    
    46   22   90 1    
    47   23   91 1    
    48   23   92 1    
    49   23   93 1    
    50   24   25 am   BACKBONE|DICT|INTERRES
    51   24   94 1    
    52   25   26 2    
    53   25   27 1    
    54   27   28 1    
    55   27   29 1    
    56   27   95 1    
    57   28   96 1    
    58   28   97 1    
    59   28   98 1    
    60   29   30 am   BACKBONE|DICT|INTERRES
    61   29   99 1    
    62   30   31 2    
    63   30   32 1    
    64   32   33 1    
    65   32   34 1    
    66   32  100 1    
    67   33  101 1    
    68   33  102 1    
    69   33  103 1    
    70   34   35 am   BACKBONE|DICT|INTERRES
    71   34  104 1    
    72   35   36 2    
    73   37   38 2    
    74   37   39 am   BACKBONE|DICT|INTERRES
    75   39   40 1    
    76   39  105 1    
    77   40   41 1    
    78   40   42 1    
    79   40  106 1    
    80   41  107 1    
    81   41  108 1    
    82   41  109 1    
    83   42   43 2    
    84   42   44 am   BACKBONE|DICT|INTERRES
    85   44   45 1    
    86   44  110 1    
    87   45   46 1    
    88   45   47 1    
    89   45  111 1    
    90   46  112 1    
    91   46  113 1    
    92   46  114 1    
    93   47   48 2    
    94   47   49 am   BACKBONE|DICT|INTERRES
    95   49   50 1    
    96   49  115 1    
    97   50   51 1    
    98   50   52 1    
    99   50  116 1    
   100   51  117 1    
   101   51  118 1    
   102   51  119 1    
   103   52   53 2    
   104   52   54 am   BACKBONE|DICT|INTERRES
   105   54   55 1    
   106   54  120 1    
   107   55   56 1    
   108   55   57 1    
   109   55  121 1    
   110   56  122 1    
   111   56  123 1    
   112   56  124 1    
   113   57   58 2    
   114   57   59 am   BACKBONE|DICT|INTERRES
   115   59   60 1    
   116   59  125 1    
   117   60   61 1    
   118   60   62 1    
   119   60  126 1    
   120   61  127 1    
   121   61  128 1    
   122   61  129 1    
   123   62   63 2    
   124   62   64 am   BACKBONE|DICT|INTERRES
   125   64   65 1    
   126   64  130 1    
   127   65   66 1    
   128   65   69 1    
   129   65  131 1    
   130   66   67 am   BACKBONE|DICT|INTERRES
   131   66   68 2    
   132   67  132 1    
   133   67  133 1    
   134   69   70 1    
   135   69  134 1    
   136   69  135 1    
   137   70   71 1    
   138   71  136 1    
   139   71  137 1    
@<TRIPOS>SUBSTRUCTURE
     1 UNK         1 GROUP             0       ****    0 ROOT    
