@<TRIPOS>MOLECULE
3R136
137   139    1
SMALL
USER_CHARGES


@<TRIPOS>ATOM
      1 CA         34.2387   20.3034    0.4041 C.3       0 UNK        -0.1979 
      2 C          33.5869   21.6753    0.4971 C.2       0 UNK         0.4864 
      3 O          34.2902   22.6854    0.4879 O.2       0 UNK        -0.5359 
      4 N          32.2511   21.7146    0.5920 N.am      1 UNK        -0.4318 
      5 CA         31.4377   22.9339    0.6340 C.3       1 UNK         0.0824 
      6 C6         29.9807   22.5951    1.0361 C.3       12 UNK        -0.0944 
      7 S7         29.1162   24.0323    1.7342 S.3       12 UNK        -0.2672 
      8 C8         29.1304   23.6430    3.5047 C.3       12 UNK         0.0333 
      9 C9         28.6791   24.8510    4.3042 C.ar      12 UNK        -0.0807 
     10 C10        29.6094   25.8313    4.6513 C.ar      12 UNK        -0.0894 
     11 C11        29.2179   26.9607    5.3719 C.ar      12 UNK        -0.0804 
     12 C12        27.8793   27.1038    5.7515 C.ar      12 UNK        -0.0824 
     13 C13        26.9352   26.1293    5.4045 C.ar      12 UNK        -0.0762 
     14 C14        27.3414   25.0035    4.6801 C.ar      12 UNK        -0.0782 
     15 C15        25.4804   26.2847    5.8266 C.3       12 UNK         0.0230 
     16 S16        24.6402   27.6316    4.9340 S.3       12 UNK        -0.2608 
     17 C17        24.4332   26.9427    3.2517 C.3       12 UNK        -0.0989 
     18 CA         25.5412   27.3883    2.2598 C.3       5 UNK         0.0716 
     19 N          25.4987   26.6947    0.9700 N.am      5 UNK        -0.4135 
     20 C          24.5142   26.6535    0.0616 C.2       4 UNK         0.5031 
     21 O          23.3864   27.1176    0.2382 O.2       4 UNK        -0.5229 
     22 CA         24.8568   25.9664   -1.2825 C.3       4 UNK         0.0329 
     23 CB         23.6898   26.0132   -2.2878 C.3       4 UNK        -0.2001 
     24 N          26.0578   26.5169   -1.9291 N.am      4 UNK        -0.4303 
     25 C          27.3153   26.2948   -1.5278 C.2       3 UNK         0.5044 
     26 O          27.5924   25.6137   -0.5412 O.2       3 UNK        -0.5152 
     27 CA         28.4444   26.9607   -2.3207 C.3       3 UNK         0.0319 
     28 CB         28.4370   28.4902   -2.1284 C.3       3 UNK        -0.2001 
     29 N          29.7182   26.4028   -1.8647 N.am      3 UNK        -0.4354 
     30 C          30.8599   26.3962   -2.5605 C.2       2 UNK         0.4964 
     31 O          30.9663   26.8839   -3.6868 O.2       2 UNK        -0.5047 
     32 CA         32.1028   25.7571   -1.9134 C.3       2 UNK         0.0288 
     33 CB         33.1658   26.8265   -1.6096 C.3       2 UNK        -0.2113 
     34 N          31.8261   24.9753   -0.6989 N.am      2 UNK        -0.4145 
     35 C          31.5097   23.6725   -0.7214 C.2       1 UNK         0.5006 
     36 O          31.2997   23.0391   -1.7602 O.2       1 UNK        -0.5103 
     37 C          25.6108   28.9195    2.0677 C.2       5 UNK         0.5055 
     38 O          24.6884   29.5360    1.5305 O.2       5 UNK        -0.5220 
     39 N          26.7084   29.5062    2.5474 N.am      6 UNK        -0.4450 
     40 CA         26.9845   30.9350    2.6132 C.3       6 UNK         0.0367 
     41 CB         27.4036   31.4771    1.2329 C.3       6 UNK        -0.1929 
     42 C          28.1063   31.1073    3.6398 C.2       6 UNK         0.5070 
     43 O          28.8327   30.1467    3.9049 O.2       6 UNK        -0.5237 
     44 N          28.2659   32.3240    4.1730 N.am      7 UNK        -0.4739 
     45 CA         29.2276   32.6589    5.2351 C.3       7 UNK         0.0276 
     46 CB         29.0421   34.1335    5.6295 C.3       7 UNK        -0.1927 
     47 C          30.7085   32.3753    4.9081 C.2       7 UNK         0.5013 
     48 O          31.5110   32.2587    5.8344 O.2       7 UNK        -0.5193 
     49 N          31.0375   32.2666    3.6150 N.am      8 UNK        -0.4253 
     50 CA         32.3701   31.9566    3.1011 C.3       8 UNK         0.0242 
     51 CB         32.9207   33.1950    2.3688 C.3       8 UNK        -0.2000 
     52 C          32.3686   30.7088    2.1986 C.2       8 UNK         0.4948 
     53 O          33.3007   30.5497    1.4086 O.2       8 UNK        -0.5275 
     54 N          31.3648   29.8208    2.3165 N.am      9 UNK        -0.4246 
     55 CA         31.2271   28.5874    1.5195 C.3       9 UNK         0.0261 
     56 CB         29.7695   28.0942    1.5802 C.3       9 UNK        -0.1959 
     57 C          32.2296   27.4764    1.9108 C.2       9 UNK         0.5033 
     58 O          31.8284   26.3297    2.1019 O.2       9 UNK        -0.5390 
     59 N          33.5138   27.8419    2.0044 N.am      10 UNK        -0.4215 
     60 CA         34.6689   27.0961    2.5265 C.3       10 UNK         0.0240 
     61 CB         34.7257   25.6308    2.0446 C.3       10 UNK        -0.1982 
     62 C          34.8377   27.2145    4.0537 C.2       10 UNK         0.4970 
     63 O          35.8333   26.7131    4.5785 O.2       10 UNK        -0.4916 
     64 N          33.9135   27.9027    4.7386 N.am      11 UNK        -0.4279 
     65 CA         34.0642   28.3253    6.1399 C.3       11 UNK         0.1003 
     66 C          35.1393   29.4368    6.2899 C.2       11 UNK         0.5709 
     67 N          35.8525   29.4641    7.4074 N.am      11 UNK        -0.7358 
     68 O          35.3052   30.2920    5.4214 O.2       11 UNK        -0.4999 
     69 C69        32.7200   28.7888    6.7586 C.3       12 UNK        -0.0954 
     70 S70        31.4996   27.4400    6.8651 S.3       12 UNK        -0.2268 
     71 C71        30.2445   28.0343    5.6950 C.3       12 UNK         0.0203 
     72 H72        34.7972   20.2166   -0.5275 H         1 UNK         0.0888 
     73 H73        34.9324   20.1612    1.2323 H         1 UNK         0.0888 
     74 H74        33.5040   19.4990    0.4353 H         1 UNK         0.0888 
     75 H75        31.7333   20.8484    0.5613 H         1 UNK         0.3017 
     76 H76        31.8732   23.5753    1.4045 H         1 UNK         0.0873 
     77 H77        29.4087   22.2142    0.1874 H         1 UNK         0.0745 
     78 H78        29.9663   21.7975    1.7809 H         1 UNK         0.0745 
     79 H79        28.4830   22.7865    3.6983 H         1 UNK         0.0705 
     80 H80        30.1380   23.3527    3.8074 H         1 UNK         0.0705 
     81 H81        30.6414   25.7228    4.3458 H         1 UNK         0.1334 
     82 H82        27.5667   27.9795    6.3040 H         1 UNK         0.1417 
     83 H83        26.6187   24.2478    4.4038 H         1 UNK         0.1562 
     84 H84        25.4451   26.5005    6.8953 H         1 UNK         0.0748 
     85 H85        24.9269   25.3546    5.6880 H         1 UNK         0.0748 
     86 H86        23.4510   27.2463    2.8858 H         1 UNK         0.0940 
     87 H87        24.4046   25.8540    3.3130 H         1 UNK         0.0940 
     88 H88        26.4925   27.0723    2.6915 H         1 UNK         0.0703 
     89 H89        26.3770   26.2680    0.6800 H         1 UNK         0.3081 
     90 H90        25.0456   24.9150   -1.0540 H         1 UNK         0.0719 
     91 H91        23.4363   27.0375   -2.5641 H         1 UNK         0.0809 
     92 H92        23.9291   25.4675   -3.2007 H         1 UNK         0.0809 
     93 H93        22.7923   25.5565   -1.8683 H         1 UNK         0.0809 
     94 H94        25.9019   27.1181   -2.7256 H         1 UNK         0.2990 
     95 H95        28.3030   26.7196   -3.3764 H         1 UNK         0.0690 
     96 H96        29.2492   28.9653   -2.6787 H         1 UNK         0.0788 
     97 H97        28.5408   28.7655   -1.0794 H         1 UNK         0.0788 
     98 H98        27.5072   28.9309   -2.4895 H         1 UNK         0.0788 
     99 H99        29.6628   25.9157   -0.9776 H         1 UNK         0.2993 
    100 H100       32.5310   25.0902   -2.6655 H         1 UNK         0.0949 
    101 H101       32.8003   27.5822   -0.9182 H         1 UNK         0.0767 
    102 H102       34.0679   26.3847   -1.1875 H         1 UNK         0.0767 
    103 H103       33.4633   27.3467   -2.5212 H         1 UNK         0.0767 
    104 H104       31.9449   25.4346    0.1990 H         1 UNK         0.3013 
    105 H105       27.4092   28.9562    3.0331 H         1 UNK         0.3121 
    106 H106       26.0929   31.4555    2.9686 H         1 UNK         0.0774 
    107 H107       28.3270   31.0207    0.8766 H         1 UNK         0.0815 
    108 H108       27.5687   32.5543    1.2712 H         1 UNK         0.0815 
    109 H109       26.6332   31.2989    0.4827 H         1 UNK         0.0815 
    110 H110       27.6431   33.0650    3.8827 H         1 UNK         0.2987 
    111 H111       28.9786   32.0405    6.1003 H         1 UNK         0.0949 
    112 H112       29.2446   34.8030    4.7925 H         1 UNK         0.0806 
    113 H113       28.0282   34.3279    5.9797 H         1 UNK         0.0806 
    114 H114       29.7190   34.4108    6.4391 H         1 UNK         0.0806 
    115 H115       30.3022   32.3759    2.9311 H         1 UNK         0.3010 
    116 H116       33.0480   31.7248    3.9257 H         1 UNK         0.0829 
    117 H117       33.9448   33.0316    2.0304 H         1 UNK         0.0813 
    118 H118       32.3216   33.4442    1.4922 H         1 UNK         0.0813 
    119 H119       32.9363   34.0665    3.0234 H         1 UNK         0.0813 
    120 H120       30.6294   29.9958    2.9958 H         1 UNK         0.3038 
    121 H121       31.4315   28.8432    0.4785 H         1 UNK         0.0769 
    122 H122       29.4762   27.8273    2.5946 H         1 UNK         0.0811 
    123 H123       29.6222   27.2084    0.9615 H         1 UNK         0.0811 
    124 H124       29.0805   28.8533    1.2191 H         1 UNK         0.0811 
    125 H125       33.7037   28.8166    1.7680 H         1 UNK         0.3204 
    126 H126       35.5376   27.6002    2.1007 H         1 UNK         0.0748 
    127 H127       35.6968   25.1870    2.2662 H         1 UNK         0.0771 
    128 H128       33.9764   25.0085    2.5343 H         1 UNK         0.0771 
    129 H129       34.5762   25.5525    0.9688 H         1 UNK         0.0771 
    130 H130       33.1294   28.2861    4.2373 H         1 UNK         0.2980 
    131 H131       34.4095   27.4574    6.7059 H         1 UNK         0.0545 
    132 H132       36.5449   30.1867    7.5280 H         1 UNK         0.3459 
    133 H133       35.7170   28.7750    8.1309 H         1 UNK         0.3459 
    134 H134       32.3062   29.6278    6.1964 H         1 UNK         0.0616 
    135 H135       32.8745   29.1560    7.7750 H         1 UNK         0.0616 
    136 H136       30.7320   28.3428    4.7701 H         1 UNK         0.0634 
    137 H137       29.7651   28.9225    6.1094 H         1 UNK         0.0634 
@<TRIPOS>BOND
     1    1    2 1    
     2    1   72 1    
     3    1   73 1    
     4    1   74 1    
     5    2    3 2    
     6    2    4 am   BACKBONE|DICT|INTERRES
     7    4    5 1    
     8    4   75 1    
     9    5    6 1    
    10    5   35 1    
    11    5   76 1    
    12    6    7 1    
    13    6   77 1    
    14    6   78 1    
    15    7    8 1    
    16    8    9 1    
    17    8   79 1    
    18    8   80 1    
    19    9   10 ar   
    20    9   14 ar   
    21   10   11 ar   
    22   10   81 1    
    23   11   12 ar   
    24   11   71 1    
    25   12   13 ar   
    26   12   82 1    
    27   13   14 ar   
    28   13   15 1    
    29   14   83 1    
    30   15   16 1    
    31   15   84 1    
    32   15   85 1    
    33   16   17 1    
    34   17   18 1    
    35   17   86 1    
    36   17   87 1    
    37   18   19 1    
    38   18   37 1    
    39   18   88 1    
    40   19   20 am   BACKBONE|DICT|INTERRES
    41   19   89 1    
    42   20   21 2    
    43   20   22 1    
    44   22   23 1    
    45   22   24 1    
    46   22   90 1    
    47   23   91 1    
    48   23   92 1    
    49   23   93 1    
    50   24   25 am   BACKBONE|DICT|INTERRES
    51   24   94 1    
    52   25   26 2    
    53   25   27 1    
    54   27   28 1    
    55   27   29 1    
    56   27   95 1    
    57   28   96 1    
    58   28   97 1    
    59   28   98 1    
    60   29   30 am   BACKBONE|DICT|INTERRES
    61   29   99 1    
    62   30   31 2    
    63   30   32 1    
    64   32   33 1    
    65   32   34 1    
    66   32  100 1    
    67   33  101 1    
    68   33  102 1    
    69   33  103 1    
    70   34   35 am   BACKBONE|DICT|INTERRES
    71   34  104 1    
    72   35   36 2    
    73   37   38 2    
    74   37   39 am   BACKBONE|DICT|INTERRES
    75   39   40 1    
    76   39  105 1    
    77   40   41 1    
    78   40   42 1    
    79   40  106 1    
    80   41  107 1    
    81   41  108 1    
    82   41  109 1    
    83   42   43 2    
    84   42   44 am   BACKBONE|DICT|INTERRES
    85   44   45 1    
    86   44  110 1    
    87   45   46 1    
    88   45   47 1    
    89   45  111 1    
    90   46  112 1    
    91   46  113 1    
    92   46  114 1    
    93   47   48 2    
    94   47   49 am   BACKBONE|DICT|INTERRES
    95   49   50 1    
    96   49  115 1    
    97   50   51 1    
    98   50   52 1    
    99   50  116 1    
   100   51  117 1    
   101   51  118 1    
   102   51  119 1    
   103   52   53 2    
   104   52   54 am   BACKBONE|DICT|INTERRES
   105   54   55 1    
   106   54  120 1    
   107   55   56 1    
   108   55   57 1    
   109   55  121 1    
   110   56  122 1    
   111   56  123 1    
   112   56  124 1    
   113   57   58 2    
   114   57   59 am   BACKBONE|DICT|INTERRES
   115   59   60 1    
   116   59  125 1    
   117   60   61 1    
   118   60   62 1    
   119   60  126 1    
   120   61  127 1    
   121   61  128 1    
   122   61  129 1    
   123   62   63 2    
   124   62   64 am   BACKBONE|DICT|INTERRES
   125   64   65 1    
   126   64  130 1    
   127   65   66 1    
   128   65   69 1    
   129   65  131 1    
   130   66   67 am   BACKBONE|DICT|INTERRES
   131   66   68 2    
   132   67  132 1    
   133   67  133 1    
   134   69   70 1    
   135   69  134 1    
   136   69  135 1    
   137   70   71 1    
   138   71  136 1    
   139   71  137 1    
@<TRIPOS>SUBSTRUCTURE
     1 UNK         1 GROUP             0       ****    0 ROOT    
