@<TRIPOS>MOLECULE
3R136
137   139    1
SMALL
USER_CHARGES


@<TRIPOS>ATOM
      1 CA         28.8371   22.6912    0.3360 C.3       0 UNK        -0.1979 
      2 C          28.5546   24.0170    1.0243 C.2       0 UNK         0.4864 
      3 O          28.1034   24.9600    0.3721 O.2       0 UNK        -0.5359 
      4 N          28.8339   24.1091    2.3308 N.am      1 UNK        -0.4318 
      5 CA         28.5697   25.2943    3.1513 C.3       1 UNK         0.0824 
      6 C6         29.2923   25.2270    4.5234 C.3       12 UNK        -0.0944 
      7 S7         30.9770   25.9200    4.4503 S.3       12 UNK        -0.2672 
      8 C8         31.9637   24.5119    3.8547 C.3       12 UNK         0.0333 
      9 C9         32.8024   24.9368    2.6608 C.ar      12 UNK        -0.0807 
     10 C10        34.1783   25.1410    2.7891 C.ar      12 UNK        -0.0894 
     11 C11        34.9342   25.5959    1.7020 C.ar      12 UNK        -0.0804 
     12 C12        34.3004   25.8238    0.4740 C.ar      12 UNK        -0.0824 
     13 C13        32.9269   25.6038    0.3301 C.ar      12 UNK        -0.0762 
     14 C14        32.1897   25.1551    1.4259 C.ar      12 UNK        -0.0782 
     15 C15        32.2359   25.8475   -1.0045 C.3       12 UNK         0.0230 
     16 S16        31.8803   27.6120   -1.2730 S.3       12 UNK        -0.2608 
     17 C17        30.4979   27.9217   -0.1227 C.3       12 UNK        -0.0989 
     18 CA         29.1726   28.1868   -0.8752 C.3       5 UNK         0.0716 
     19 N          28.6331   26.9837   -1.4970 N.am      5 UNK        -0.4135 
     20 C          28.2023   26.8963   -2.7604 C.2       4 UNK         0.5031 
     21 O          28.3485   27.7798   -3.6062 O.2       4 UNK        -0.5229 
     22 CA         27.4303   25.6179   -3.1280 C.3       4 UNK         0.0329 
     23 CB         28.4027   24.4631   -3.4186 C.3       4 UNK        -0.2001 
     24 N          26.4885   25.2129   -2.0801 N.am      4 UNK        -0.4303 
     25 C          25.4057   25.9067   -1.7017 C.2       3 UNK         0.5044 
     26 O          25.0364   26.9514   -2.2382 O.2       3 UNK        -0.5152 
     27 CA         24.6118   25.3603   -0.5087 C.3       3 UNK         0.0319 
     28 CB         24.6483   23.8237   -0.3811 C.3       3 UNK        -0.2001 
     29 N          25.1359   25.9692    0.7097 N.am      3 UNK        -0.4354 
     30 C          24.3973   26.4249    1.7314 C.2       2 UNK         0.4964 
     31 O          23.1671   26.3653    1.7606 O.2       2 UNK        -0.5047 
     32 CA         25.1514   27.0761    2.9108 C.3       2 UNK         0.0288 
     33 CB         24.4300   26.9029    4.2653 C.3       2 UNK        -0.2113 
     34 N          26.5600   26.6714    2.9829 N.am      2 UNK        -0.4145 
     35 C          27.0490   25.4694    3.3188 C.2       1 UNK         0.5006 
     36 O          26.3713   24.5210    3.7220 O.2       1 UNK        -0.5103 
     37 C          28.0686   28.6893    0.0630 C.2       5 UNK         0.5055 
     38 O          28.0199   28.2870    1.2273 O.2       5 UNK        -0.5220 
     39 N          27.1695   29.5195   -0.4787 N.am      6 UNK        -0.4450 
     40 CA         25.9992   30.0620    0.2186 C.3       6 UNK         0.0367 
     41 CB         25.0096   30.6055   -0.8245 C.3       6 UNK        -0.1929 
     42 C          26.3269   31.1442    1.2671 C.2       6 UNK         0.5070 
     43 O          25.4617   31.4607    2.0828 O.2       6 UNK        -0.5237 
     44 N          27.5452   31.7020    1.2076 N.am      7 UNK        -0.4739 
     45 CA         28.0634   32.7817    2.0549 C.3       7 UNK         0.0276 
     46 CB         29.5107   33.1161    1.6525 C.3       7 UNK        -0.1927 
     47 C          27.9038   32.6146    3.5869 C.2       7 UNK         0.5013 
     48 O          27.3984   33.5480    4.2091 O.2       7 UNK        -0.5193 
     49 N          28.2725   31.4937    4.2285 N.am      8 UNK        -0.4253 
     50 CA         29.0576   30.3554    3.7474 C.3       8 UNK         0.0242 
     51 CB         28.6157   29.1048    4.5242 C.3       8 UNK        -0.2000 
     52 C          30.5633   30.5997    3.9333 C.2       8 UNK         0.4948 
     53 O          30.9556   31.5084    4.6686 O.2       8 UNK        -0.5275 
     54 N          31.3772   29.7812    3.2515 N.am      9 UNK        -0.4246 
     55 CA         32.8416   29.8679    3.2565 C.3       9 UNK         0.0261 
     56 CB         33.4171   28.9471    2.1696 C.3       9 UNK        -0.1959 
     57 C          33.4666   29.5516    4.6257 C.2       9 UNK         0.5033 
     58 O          34.3842   30.2599    5.0423 O.2       9 UNK        -0.5390 
     59 N          32.9379   28.5146    5.2957 N.am      10 UNK        -0.4215 
     60 CA         33.2731   28.0650    6.6530 C.3       10 UNK         0.0240 
     61 CB         32.7160   29.0620    7.6914 C.3       10 UNK        -0.1982 
     62 C          34.7726   27.7625    6.8527 C.2       10 UNK         0.4970 
     63 O          35.3644   28.2049    7.8395 O.2       10 UNK        -0.4916 
     64 N          35.3593   27.0179    5.9052 N.am      11 UNK        -0.4279 
     65 CA         36.7852   26.6420    5.8981 C.3       11 UNK         0.1003 
     66 C          37.2346   25.7123    7.0651 C.2       11 UNK         0.5709 
     67 N          36.3319   25.0237    7.7542 N.am      11 UNK        -0.7358 
     68 O          38.4265   25.6164    7.3484 O.2       11 UNK        -0.4999 
     69 C69        37.2312   26.0381    4.5399 C.3       12 UNK        -0.0954 
     70 S70        36.8407   27.0870    3.0971 S.3       12 UNK        -0.2268 
     71 C71        36.4342   25.8313    1.8380 C.3       12 UNK         0.0203 
     72 H72        29.2014   21.9394    1.0357 H         1 UNK         0.0888 
     73 H73        27.9307   22.3081   -0.1311 H         1 UNK         0.0888 
     74 H74        29.5908   22.8261   -0.4390 H         1 UNK         0.0888 
     75 H75        29.1527   23.2913    2.8290 H         1 UNK         0.3017 
     76 H76        28.9453   26.1615    2.6035 H         1 UNK         0.0873 
     77 H77        29.3160   24.2102    4.9194 H         1 UNK         0.0745 
     78 H78        28.7629   25.8191    5.2733 H         1 UNK         0.0745 
     79 H79        31.3231   23.6769    3.5709 H         1 UNK         0.0705 
     80 H80        32.5951   24.1511    4.6680 H         1 UNK         0.0705 
     81 H81        34.6543   24.9576    3.7400 H         1 UNK         0.1334 
     82 H82        34.8726   26.1767   -0.3732 H         1 UNK         0.1417 
     83 H83        31.1290   24.9988    1.3247 H         1 UNK         0.1562 
     84 H84        31.3091   25.2755   -1.0761 H         1 UNK         0.0748 
     85 H85        32.8756   25.4915   -1.8133 H         1 UNK         0.0748 
     86 H86        30.7712   28.7939    0.4722 H         1 UNK         0.0940 
     87 H87        30.3864   27.0966    0.5804 H         1 UNK         0.0940 
     88 H88        29.3589   28.9626   -1.6214 H         1 UNK         0.0703 
     89 H89        28.4294   26.2152   -0.8580 H         1 UNK         0.3081 
     90 H90        26.8568   25.8218   -4.0347 H         1 UNK         0.0719 
     91 H91        29.1000   24.7324   -4.2132 H         1 UNK         0.0809 
     92 H92        28.9950   24.2013   -2.5411 H         1 UNK         0.0809 
     93 H93        27.8712   23.5689   -3.7447 H         1 UNK         0.0809 
     94 H94        26.7438   24.4030   -1.5336 H         1 UNK         0.2990 
     95 H95        23.5740   25.6633   -0.6641 H         1 UNK         0.0690 
     96 H96        23.9486   23.4833    0.3825 H         1 UNK         0.0788 
     97 H97        25.6353   23.4544   -0.1032 H         1 UNK         0.0788 
     98 H98        24.3607   23.3427   -1.3171 H         1 UNK         0.0788 
     99 H99        26.1447   26.0508    0.7590 H         1 UNK         0.2993 
    100 H100       25.1658   28.1457    2.7024 H         1 UNK         0.0949 
    101 H101       23.4532   27.3878    4.2501 H         1 UNK         0.0767 
    102 H102       24.2629   25.8534    4.5085 H         1 UNK         0.0767 
    103 H103       25.0000   27.3516    5.0789 H         1 UNK         0.0767 
    104 H104       27.2073   27.3411    2.5674 H         1 UNK         0.3013 
    105 H105       27.2642   29.7646   -1.4548 H         1 UNK         0.3121 
    106 H106       25.5099   29.2399    0.7403 H         1 UNK         0.0774 
    107 H107       25.4381   31.4272   -1.3996 H         1 UNK         0.0815 
    108 H108       24.7041   29.8265   -1.5238 H         1 UNK         0.0815 
    109 H109       24.1034   30.9804   -0.3463 H         1 UNK         0.0815 
    110 H110       28.1606   31.3777    0.4773 H         1 UNK         0.2987 
    111 H111       27.4632   33.6580    1.7999 H         1 UNK         0.0949 
    112 H112       29.5464   33.5667    0.6604 H         1 UNK         0.0806 
    113 H113       29.9583   33.8315    2.3443 H         1 UNK         0.0806 
    114 H114       30.1499   32.2347    1.6340 H         1 UNK         0.0806 
    115 H115       28.1345   31.4952    5.2278 H         1 UNK         0.3010 
    116 H116       28.8759   30.1846    2.6912 H         1 UNK         0.0829 
    117 H117       28.8679   29.1723    5.5834 H         1 UNK         0.0813 
    118 H118       29.0975   28.2117    4.1299 H         1 UNK         0.0813 
    119 H119       27.5393   28.9510    4.4461 H         1 UNK         0.0813 
    120 H120       30.9705   29.0454    2.6939 H         1 UNK         0.3038 
    121 H121       33.1135   30.8954    3.0048 H         1 UNK         0.0769 
    122 H122       33.1083   29.2629    1.1735 H         1 UNK         0.0811 
    123 H123       33.1007   27.9137    2.3079 H         1 UNK         0.0811 
    124 H124       34.5078   28.9571    2.1829 H         1 UNK         0.0811 
    125 H125       32.2070   27.9853    4.8375 H         1 UNK         0.3204 
    126 H126       32.7532   27.1171    6.7997 H         1 UNK         0.0748 
    127 H127       31.6462   29.2200    7.5535 H         1 UNK         0.0771 
    128 H128       32.8600   28.6933    8.7078 H         1 UNK         0.0771 
    129 H129       33.2082   30.0328    7.6224 H         1 UNK         0.0771 
    130 H130       34.8168   26.7286    5.1066 H         1 UNK         0.2980 
    131 H131       37.3431   27.5708    6.0319 H         1 UNK         0.0545 
    132 H132       36.6368   24.4286    8.5082 H         1 UNK         0.3459 
    133 H133       35.3526   25.0956    7.5320 H         1 UNK         0.3459 
    134 H134       36.7903   25.0495    4.4084 H         1 UNK         0.0616 
    135 H135       38.3117   25.8820    4.5350 H         1 UNK         0.0616 
    136 H136       36.9345   24.8887    2.0635 H         1 UNK         0.0634 
    137 H137       36.8502   26.1697    0.8879 H         1 UNK         0.0634 
@<TRIPOS>BOND
     1    1    2 1    
     2    1   72 1    
     3    1   73 1    
     4    1   74 1    
     5    2    3 2    
     6    2    4 am   BACKBONE|DICT|INTERRES
     7    4    5 1    
     8    4   75 1    
     9    5    6 1    
    10    5   35 1    
    11    5   76 1    
    12    6    7 1    
    13    6   77 1    
    14    6   78 1    
    15    7    8 1    
    16    8    9 1    
    17    8   79 1    
    18    8   80 1    
    19    9   10 ar   
    20    9   14 ar   
    21   10   11 ar   
    22   10   81 1    
    23   11   12 ar   
    24   11   71 1    
    25   12   13 ar   
    26   12   82 1    
    27   13   14 ar   
    28   13   15 1    
    29   14   83 1    
    30   15   16 1    
    31   15   84 1    
    32   15   85 1    
    33   16   17 1    
    34   17   18 1    
    35   17   86 1    
    36   17   87 1    
    37   18   19 1    
    38   18   37 1    
    39   18   88 1    
    40   19   20 am   BACKBONE|DICT|INTERRES
    41   19   89 1    
    42   20   21 2    
    43   20   22 1    
    44   22   23 1    
    45   22   24 1    
    46   22   90 1    
    47   23   91 1    
    48   23   92 1    
    49   23   93 1    
    50   24   25 am   BACKBONE|DICT|INTERRES
    51   24   94 1    
    52   25   26 2    
    53   25   27 1    
    54   27   28 1    
    55   27   29 1    
    56   27   95 1    
    57   28   96 1    
    58   28   97 1    
    59   28   98 1    
    60   29   30 am   BACKBONE|DICT|INTERRES
    61   29   99 1    
    62   30   31 2    
    63   30   32 1    
    64   32   33 1    
    65   32   34 1    
    66   32  100 1    
    67   33  101 1    
    68   33  102 1    
    69   33  103 1    
    70   34   35 am   BACKBONE|DICT|INTERRES
    71   34  104 1    
    72   35   36 2    
    73   37   38 2    
    74   37   39 am   BACKBONE|DICT|INTERRES
    75   39   40 1    
    76   39  105 1    
    77   40   41 1    
    78   40   42 1    
    79   40  106 1    
    80   41  107 1    
    81   41  108 1    
    82   41  109 1    
    83   42   43 2    
    84   42   44 am   BACKBONE|DICT|INTERRES
    85   44   45 1    
    86   44  110 1    
    87   45   46 1    
    88   45   47 1    
    89   45  111 1    
    90   46  112 1    
    91   46  113 1    
    92   46  114 1    
    93   47   48 2    
    94   47   49 am   BACKBONE|DICT|INTERRES
    95   49   50 1    
    96   49  115 1    
    97   50   51 1    
    98   50   52 1    
    99   50  116 1    
   100   51  117 1    
   101   51  118 1    
   102   51  119 1    
   103   52   53 2    
   104   52   54 am   BACKBONE|DICT|INTERRES
   105   54   55 1    
   106   54  120 1    
   107   55   56 1    
   108   55   57 1    
   109   55  121 1    
   110   56  122 1    
   111   56  123 1    
   112   56  124 1    
   113   57   58 2    
   114   57   59 am   BACKBONE|DICT|INTERRES
   115   59   60 1    
   116   59  125 1    
   117   60   61 1    
   118   60   62 1    
   119   60  126 1    
   120   61  127 1    
   121   61  128 1    
   122   61  129 1    
   123   62   63 2    
   124   62   64 am   BACKBONE|DICT|INTERRES
   125   64   65 1    
   126   64  130 1    
   127   65   66 1    
   128   65   69 1    
   129   65  131 1    
   130   66   67 am   BACKBONE|DICT|INTERRES
   131   66   68 2    
   132   67  132 1    
   133   67  133 1    
   134   69   70 1    
   135   69  134 1    
   136   69  135 1    
   137   70   71 1    
   138   71  136 1    
   139   71  137 1    
@<TRIPOS>SUBSTRUCTURE
     1 UNK         1 GROUP             0       ****    0 ROOT    
