@<TRIPOS>MOLECULE
3R136
137   139    1
SMALL
USER_CHARGES


@<TRIPOS>ATOM
      1 CA         35.9484   24.0574   -0.5214 C.3       0 UNK        -0.1979 
      2 C          34.5240   24.1572    0.0041 C.2       0 UNK         0.4864 
      3 O          34.2713   24.9101    0.9445 O.2       0 UNK        -0.5359 
      4 N          33.5930   23.3991   -0.5890 N.am      1 UNK        -0.4318 
      5 CA         32.1668   23.4280   -0.2600 C.3       1 UNK         0.0824 
      6 C6         31.4612   22.1436   -0.7635 C.3       12 UNK        -0.0944 
      7 S7         29.7224   21.9843   -0.2283 S.3       12 UNK        -0.2672 
      8 C8         29.8854   21.1655    1.3885 C.3       12 UNK         0.0333 
      9 C9         29.3914   22.0752    2.5015 C.ar      12 UNK        -0.0807 
     10 C10        30.2779   22.9235    3.1695 C.ar      12 UNK        -0.0894 
     11 C11        29.8205   23.7764    4.1779 C.ar      12 UNK        -0.0804 
     12 C12        28.4693   23.7580    4.5385 C.ar      12 UNK        -0.0824 
     13 C13        27.5779   22.8953    3.8926 C.ar      12 UNK        -0.0762 
     14 C14        28.0427   22.0649    2.8682 C.ar      12 UNK        -0.0782 
     15 C15        26.1177   22.8304    4.3140 C.3       12 UNK         0.0230 
     16 S16        25.0614   23.8715    3.2617 S.3       12 UNK        -0.2608 
     17 C17        25.3061   25.5272    3.9928 C.3       12 UNK        -0.0989 
     18 CA         26.2277   26.4477    3.1444 C.3       5 UNK         0.0716 
     19 N          25.8262   26.5598    1.7326 N.am      5 UNK        -0.4135 
     20 C          24.6445   26.9607    1.2381 C.2       4 UNK         0.5031 
     21 O          23.7071   27.3553    1.9315 O.2       4 UNK        -0.5229 
     22 CA         24.4898   26.9621   -0.2957 C.3       4 UNK         0.0329 
     23 CB         24.4259   28.4046   -0.8258 C.3       4 UNK        -0.2001 
     24 N          25.5773   26.2591   -0.9811 N.am      4 UNK        -0.4303 
     25 C          25.6908   24.9321   -1.1110 C.2       3 UNK         0.5044 
     26 O          24.8256   24.1345   -0.7510 O.2       3 UNK        -0.5152 
     27 CA         27.0082   24.4003   -1.7067 C.3       3 UNK         0.0319 
     28 CB         27.0180   24.5125   -3.2434 C.3       3 UNK        -0.2001 
     29 N          28.2215   24.9839   -1.1093 N.am      3 UNK        -0.4354 
     30 C          28.6786   26.2458   -1.1744 C.2       2 UNK         0.4964 
     31 O          28.1058   27.1489   -1.7847 O.2       2 UNK        -0.5047 
     32 CA         29.9583   26.5827   -0.3882 C.3       2 UNK         0.0288 
     33 CB         29.6091   27.3973    0.8679 C.3       2 UNK        -0.2113 
     34 N          30.7308   25.4013    0.0053 N.am      2 UNK        -0.4145 
     35 C          31.5208   24.7085   -0.8268 C.2       1 UNK         0.5006 
     36 O          31.7237   25.0220   -2.0029 O.2       1 UNK        -0.5103 
     37 C          26.4573   27.8107    3.8409 C.2       5 UNK         0.5055 
     38 O          26.7826   27.8266    5.0294 O.2       5 UNK        -0.5220 
     39 N          26.3027   28.9246    3.1123 N.am      6 UNK        -0.4450 
     40 CA         26.5743   30.2816    3.5843 C.3       6 UNK         0.0367 
     41 CB         25.8797   31.2830    2.6469 C.3       6 UNK        -0.1929 
     42 C          28.0855   30.5517    3.6313 C.2       6 UNK         0.5070 
     43 O          28.8263   30.0107    2.8086 O.2       6 UNK        -0.5237 
     44 N          28.5102   31.4051    4.5703 N.am      7 UNK        -0.4739 
     45 CA         29.9046   31.8199    4.7216 C.3       7 UNK         0.0276 
     46 CB         30.0873   32.5305    6.0724 C.3       7 UNK        -0.1927 
     47 C          30.3488   32.7245    3.5602 C.2       7 UNK         0.5013 
     48 O          29.6914   33.7324    3.2891 O.2       7 UNK        -0.5193 
     49 N          31.4595   32.3582    2.9171 N.am      8 UNK        -0.4253 
     50 CA         32.0772   33.0764    1.8056 C.3       8 UNK         0.0242 
     51 CB         31.3927   32.6857    0.4803 C.3       8 UNK        -0.2000 
     52 C          33.5728   32.7477    1.8330 C.2       8 UNK         0.4948 
     53 O          34.0578   31.9996    0.9814 O.2       8 UNK        -0.5275 
     54 N          34.2543   33.2299    2.8837 N.am      9 UNK        -0.4246 
     55 CA         35.6168   32.8880    3.3263 C.3       9 UNK         0.0261 
     56 CB         36.6823   33.1829    2.2509 C.3       9 UNK        -0.1959 
     57 C          35.7101   31.4450    3.8549 C.2       9 UNK         0.5033 
     58 O          36.0901   31.2444    5.0094 O.2       9 UNK        -0.5390 
     59 N          35.2987   30.4776    3.0281 N.am      10 UNK        -0.4215 
     60 CA         34.9512   29.1200    3.4406 C.3       10 UNK         0.0240 
     61 CB         34.9397   28.2101    2.2023 C.3       10 UNK        -0.1982 
     62 C          33.5696   29.1190    4.1161 C.2       10 UNK         0.4970 
     63 O          32.7378   29.9734    3.7993 O.2       10 UNK        -0.4916 
     64 N          33.3529   28.1553    5.0185 N.am      11 UNK        -0.4279 
     65 CA         32.0975   27.9290    5.7621 C.3       11 UNK         0.1003 
     66 C          31.7203   29.0460    6.7838 C.2       11 UNK         0.5709 
     67 N          32.6030   29.9869    7.0985 N.am      11 UNK        -0.7358 
     68 O          30.6226   29.0402    7.3346 O.2       11 UNK        -0.4999 
     69 C69        30.9027   27.5330    4.8436 C.3       12 UNK        -0.0954 
     70 S70        31.2721   26.0865    3.7953 S.3       12 UNK        -0.2268 
     71 C71        30.7963   24.7058    4.8802 C.3       12 UNK         0.0203 
     72 H72        36.0302   23.3515   -1.3477 H         1 UNK         0.0888 
     73 H73        36.2868   25.0318   -0.8727 H         1 UNK         0.0888 
     74 H74        36.6187   23.7295    0.2727 H         1 UNK         0.0888 
     75 H75        33.8506   22.8247   -1.3789 H         1 UNK         0.3017 
     76 H76        32.0858   23.4523    0.8273 H         1 UNK         0.0873 
     77 H77        31.4791   22.1057   -1.8546 H         1 UNK         0.0745 
     78 H78        32.0093   21.2597   -0.4335 H         1 UNK         0.0745 
     79 H79        29.3053   20.2415    1.3757 H         1 UNK         0.0705 
     80 H80        30.9187   20.8701    1.5753 H         1 UNK         0.0705 
     81 H81        31.3260   22.9276    2.9061 H         1 UNK         0.1334 
     82 H82        28.1134   24.4081    5.3262 H         1 UNK         0.1417 
     83 H83        27.3528   21.4056    2.3584 H         1 UNK         0.1562 
     84 H84        26.0017   23.1105    5.3621 H         1 UNK         0.0748 
     85 H85        25.7668   21.7997    4.2425 H         1 UNK         0.0748 
     86 H86        25.7046   25.4136    5.0023 H         1 UNK         0.0940 
     87 H87        24.3236   25.9849    4.1193 H         1 UNK         0.0940 
     88 H88        27.2119   25.9781    3.1199 H         1 UNK         0.0703 
     89 H89        26.5180   26.2556    1.0654 H         1 UNK         0.3081 
     90 H90        23.5458   26.4655   -0.5302 H         1 UNK         0.0719 
     91 H91        25.3499   28.9501   -0.6292 H         1 UNK         0.0809 
     92 H92        24.2494   28.4228   -1.9015 H         1 UNK         0.0809 
     93 H93        23.6120   28.9598   -0.3572 H         1 UNK         0.0809 
     94 H94        26.3518   26.8220   -1.3283 H         1 UNK         0.2990 
     95 H95        27.0501   23.3375   -1.4620 H         1 UNK         0.0690 
     96 H96        27.9211   24.0712   -3.6652 H         1 UNK         0.0788 
     97 H97        26.9613   25.5474   -3.5817 H         1 UNK         0.0788 
     98 H98        26.1668   23.9849   -3.6757 H         1 UNK         0.0788 
     99 H99        28.7696   24.3289   -0.5669 H         1 UNK         0.2993 
    100 H100       30.5773   27.2073   -1.0363 H         1 UNK         0.0949 
    101 H101       29.0017   28.2689    0.6189 H         1 UNK         0.0767 
    102 H102       29.0522   26.8083    1.5967 H         1 UNK         0.0767 
    103 H103       30.5080   27.7713    1.3589 H         1 UNK         0.0767 
    104 H104       30.6360   25.0967    0.9643 H         1 UNK         0.3013 
    105 H105       26.0673   28.8255    2.1374 H         1 UNK         0.3121 
    106 H106       26.1600   30.3924    4.5890 H         1 UNK         0.0774 
    107 H107       24.8031   31.1148    2.6124 H         1 UNK         0.0815 
    108 H108       26.0365   32.3081    2.9855 H         1 UNK         0.0815 
    109 H109       26.2640   31.2157    1.6281 H         1 UNK         0.0815 
    110 H110       27.8364   31.8440    5.1811 H         1 UNK         0.2987 
    111 H111       30.5189   30.9183    4.7283 H         1 UNK         0.0949 
    112 H112       31.1286   32.8205    6.2194 H         1 UNK         0.0806 
    113 H113       29.8142   31.8789    6.9027 H         1 UNK         0.0806 
    114 H114       29.4827   33.4358    6.1398 H         1 UNK         0.0806 
    115 H115       31.9356   31.5032    3.2087 H         1 UNK         0.3010 
    116 H116       31.9698   34.1533    1.9531 H         1 UNK         0.0829 
    117 H117       30.3430   32.9792    0.4746 H         1 UNK         0.0813 
    118 H118       31.8726   33.1768   -0.3670 H         1 UNK         0.0813 
    119 H119       31.4382   31.6097    0.3064 H         1 UNK         0.0813 
    120 H120       33.7363   33.8029    3.5362 H         1 UNK         0.3038 
    121 H121       35.8242   33.5456    4.1722 H         1 UNK         0.0769 
    122 H122       36.5818   32.5396    1.3766 H         1 UNK         0.0811 
    123 H123       37.6853   33.0263    2.6497 H         1 UNK         0.0811 
    124 H124       36.6263   34.2175    1.9127 H         1 UNK         0.0811 
    125 H125       34.9308   30.7852    2.1303 H         1 UNK         0.3204 
    126 H126       35.7007   28.7560    4.1466 H         1 UNK         0.0748 
    127 H127       35.9124   28.1942    1.7105 H         1 UNK         0.0771 
    128 H128       34.6977   27.1818    2.4748 H         1 UNK         0.0771 
    129 H129       34.1982   28.5337    1.4700 H         1 UNK         0.0771 
    130 H130       34.0955   27.5014    5.2183 H         1 UNK         0.2980 
    131 H131       32.3044   27.0639    6.3928 H         1 UNK         0.0545 
    132 H132       33.5131   30.0016    6.6674 H         1 UNK         0.3459 
    133 H133       32.3540   30.6867    7.7786 H         1 UNK         0.3459 
    134 H134       30.6351   28.3622    4.1875 H         1 UNK         0.0616 
    135 H135       30.0049   27.3215    5.4269 H         1 UNK         0.0616 
    136 H136       31.6942   24.1518    5.1576 H         1 UNK         0.0634 
    137 H137       30.3690   25.0754    5.8132 H         1 UNK         0.0634 
@<TRIPOS>BOND
     1    1    2 1    
     2    1   72 1    
     3    1   73 1    
     4    1   74 1    
     5    2    3 2    
     6    2    4 am   BACKBONE|DICT|INTERRES
     7    4    5 1    
     8    4   75 1    
     9    5    6 1    
    10    5   35 1    
    11    5   76 1    
    12    6    7 1    
    13    6   77 1    
    14    6   78 1    
    15    7    8 1    
    16    8    9 1    
    17    8   79 1    
    18    8   80 1    
    19    9   10 ar   
    20    9   14 ar   
    21   10   11 ar   
    22   10   81 1    
    23   11   12 ar   
    24   11   71 1    
    25   12   13 ar   
    26   12   82 1    
    27   13   14 ar   
    28   13   15 1    
    29   14   83 1    
    30   15   16 1    
    31   15   84 1    
    32   15   85 1    
    33   16   17 1    
    34   17   18 1    
    35   17   86 1    
    36   17   87 1    
    37   18   19 1    
    38   18   37 1    
    39   18   88 1    
    40   19   20 am   BACKBONE|DICT|INTERRES
    41   19   89 1    
    42   20   21 2    
    43   20   22 1    
    44   22   23 1    
    45   22   24 1    
    46   22   90 1    
    47   23   91 1    
    48   23   92 1    
    49   23   93 1    
    50   24   25 am   BACKBONE|DICT|INTERRES
    51   24   94 1    
    52   25   26 2    
    53   25   27 1    
    54   27   28 1    
    55   27   29 1    
    56   27   95 1    
    57   28   96 1    
    58   28   97 1    
    59   28   98 1    
    60   29   30 am   BACKBONE|DICT|INTERRES
    61   29   99 1    
    62   30   31 2    
    63   30   32 1    
    64   32   33 1    
    65   32   34 1    
    66   32  100 1    
    67   33  101 1    
    68   33  102 1    
    69   33  103 1    
    70   34   35 am   BACKBONE|DICT|INTERRES
    71   34  104 1    
    72   35   36 2    
    73   37   38 2    
    74   37   39 am   BACKBONE|DICT|INTERRES
    75   39   40 1    
    76   39  105 1    
    77   40   41 1    
    78   40   42 1    
    79   40  106 1    
    80   41  107 1    
    81   41  108 1    
    82   41  109 1    
    83   42   43 2    
    84   42   44 am   BACKBONE|DICT|INTERRES
    85   44   45 1    
    86   44  110 1    
    87   45   46 1    
    88   45   47 1    
    89   45  111 1    
    90   46  112 1    
    91   46  113 1    
    92   46  114 1    
    93   47   48 2    
    94   47   49 am   BACKBONE|DICT|INTERRES
    95   49   50 1    
    96   49  115 1    
    97   50   51 1    
    98   50   52 1    
    99   50  116 1    
   100   51  117 1    
   101   51  118 1    
   102   51  119 1    
   103   52   53 2    
   104   52   54 am   BACKBONE|DICT|INTERRES
   105   54   55 1    
   106   54  120 1    
   107   55   56 1    
   108   55   57 1    
   109   55  121 1    
   110   56  122 1    
   111   56  123 1    
   112   56  124 1    
   113   57   58 2    
   114   57   59 am   BACKBONE|DICT|INTERRES
   115   59   60 1    
   116   59  125 1    
   117   60   61 1    
   118   60   62 1    
   119   60  126 1    
   120   61  127 1    
   121   61  128 1    
   122   61  129 1    
   123   62   63 2    
   124   62   64 am   BACKBONE|DICT|INTERRES
   125   64   65 1    
   126   64  130 1    
   127   65   66 1    
   128   65   69 1    
   129   65  131 1    
   130   66   67 am   BACKBONE|DICT|INTERRES
   131   66   68 2    
   132   67  132 1    
   133   67  133 1    
   134   69   70 1    
   135   69  134 1    
   136   69  135 1    
   137   70   71 1    
   138   71  136 1    
   139   71  137 1    
@<TRIPOS>SUBSTRUCTURE
     1 UNK         1 GROUP             0       ****    0 ROOT    
