@<TRIPOS>MOLECULE
3R136
137   139    1
SMALL
USER_CHARGES


@<TRIPOS>ATOM
      1 CA         32.5967   25.8525   -1.1877 C.3       0 UNK        -0.1979 
      2 C          31.5690   25.1862   -0.2850 C.2       0 UNK         0.4864 
      3 O          31.1040   25.8112    0.6655 O.2       0 UNK        -0.5359 
      4 N          31.2175   23.9291   -0.5820 N.am      1 UNK        -0.4318 
      5 CA         30.2376   23.1302    0.1604 C.3       1 UNK         0.0824 
      6 C6         30.5652   21.6139    0.0245 C.3       12 UNK        -0.0944 
      7 S7         30.0233   20.6066    1.4516 S.3       12 UNK        -0.2672 
      8 C8         31.5250   20.5578    2.4957 C.3       12 UNK         0.0333 
      9 C9         31.9290   21.9544    2.9438 C.ar      12 UNK        -0.0807 
     10 C10        33.1288   22.5262    2.5046 C.ar      12 UNK        -0.0894 
     11 C11        33.4188   23.8643    2.7904 C.ar      12 UNK        -0.0804 
     12 C12        32.4949   24.6272    3.5078 C.ar      12 UNK        -0.0824 
     13 C13        31.3038   24.0624    3.9638 C.ar      12 UNK        -0.0762 
     14 C14        31.0464   22.7120    3.7194 C.ar      12 UNK        -0.0782 
     15 C15        30.2397   24.9387    4.6008 C.3       12 UNK         0.0230 
     16 S16        28.8862   25.1646    3.4097 S.3       12 UNK        -0.2608 
     17 C17        27.9840   26.6027    4.0637 C.3       12 UNK        -0.0989 
     18 CA         28.2302   27.8970    3.2439 C.3       5 UNK         0.0716 
     19 N          28.0200   27.7069    1.8010 N.am      5 UNK        -0.4135 
     20 C          28.3294   28.6062    0.8522 C.2       4 UNK         0.5031 
     21 O          28.8529   29.6944    1.0887 O.2       4 UNK        -0.5229 
     22 CA         27.9194   28.2979   -0.6016 C.3       4 UNK         0.0329 
     23 CB         29.1132   27.8063   -1.4302 C.3       4 UNK        -0.2001 
     24 N          26.8119   27.3498   -0.7298 N.am      4 UNK        -0.4303 
     25 C          25.5731   27.5567   -0.2615 C.2       3 UNK         0.5044 
     26 O          25.2322   28.5829    0.3291 O.2       3 UNK        -0.5152 
     27 CA         24.5583   26.4119   -0.4362 C.3       3 UNK         0.0319 
     28 CB         23.7182   26.6312   -1.7040 C.3       3 UNK        -0.2001 
     29 N          25.1540   25.0691   -0.4743 N.am      3 UNK        -0.4354 
     30 C          25.8944   24.5248    0.5029 C.2       2 UNK         0.4964 
     31 O          26.1913   25.1266    1.5345 O.2       2 UNK        -0.5047 
     32 CA         26.3682   23.0689    0.3248 C.3       2 UNK         0.0288 
     33 CB         25.9070   22.3980   -0.9909 C.3       2 UNK        -0.2113 
     34 N          27.8193   22.9357    0.5011 N.am      2 UNK        -0.4145 
     35 C          28.7873   23.4743   -0.2550 C.2       1 UNK         0.5006 
     36 O          28.5699   24.1795   -1.2457 O.2       1 UNK        -0.5103 
     37 C          27.3682   29.0407    3.8228 C.2       5 UNK         0.5055 
     38 O          27.7492   29.6258    4.8374 O.2       5 UNK        -0.5220 
     39 N          26.2183   29.3279    3.1927 N.am      6 UNK        -0.4450 
     40 CA         25.3476   30.4491    3.5481 C.3       6 UNK         0.0367 
     41 CB         23.8903   30.0825    3.2236 C.3       6 UNK        -0.1929 
     42 C          25.7510   31.7409    2.8181 C.2       6 UNK         0.5070 
     43 O          25.4786   32.8275    3.3290 O.2       6 UNK        -0.5237 
     44 N          26.3713   31.6105    1.6368 N.am      7 UNK        -0.4739 
     45 CA         26.7933   32.7308    0.7951 C.3       7 UNK         0.0276 
     46 CB         26.9908   32.2433   -0.6492 C.3       7 UNK        -0.1927 
     47 C          28.0682   33.4188    1.3075 C.2       7 UNK         0.5013 
     48 O          28.1640   34.6433    1.2102 O.2       7 UNK        -0.5193 
     49 N          29.0216   32.6378    1.8302 N.am      8 UNK        -0.4253 
     50 CA         30.3056   33.1201    2.3347 C.3       8 UNK         0.0242 
     51 CB         31.3044   33.2359    1.1672 C.3       8 UNK        -0.2000 
     52 C          30.8368   32.1673    3.4093 C.2       8 UNK         0.4948 
     53 O          30.4123   31.0122    3.4778 O.2       8 UNK        -0.5275 
     54 N          31.8053   32.6458    4.2011 N.am      9 UNK        -0.4246 
     55 CA         32.5134   31.8814    5.2349 C.3       9 UNK         0.0261 
     56 CB         33.1422   32.8644    6.2406 C.3       9 UNK        -0.1959 
     57 C          33.5472   30.9043    4.6344 C.2       9 UNK         0.5033 
     58 O          34.7346   30.9721    4.9630 O.2       9 UNK        -0.5390 
     59 N          33.0777   30.0232    3.7436 N.am      10 UNK        -0.4215 
     60 CA         33.8558   28.9776    3.0816 C.3       10 UNK         0.0240 
     61 CB         32.9736   28.3094    2.0146 C.3       10 UNK        -0.1982 
     62 C          34.3798   27.9472    4.0961 C.2       10 UNK         0.4970 
     63 O          33.6469   27.5829    5.0184 O.2       10 UNK        -0.4916 
     64 N          35.6316   27.5078    3.9069 N.am      11 UNK        -0.4279 
     65 CA         36.3727   26.5976    4.8029 C.3       11 UNK         0.1003 
     66 C          36.6415   27.1645    6.2354 C.2       11 UNK         0.5709 
     67 N          36.4466   28.4529    6.4956 N.am      11 UNK        -0.7358 
     68 O          37.0814   26.4354    7.1216 O.2       11 UNK        -0.4999 
     69 C69        35.7889   25.1505    4.8158 C.3       12 UNK        -0.0954 
     70 S70        36.1444   24.2213    3.2837 S.3       12 UNK        -0.2268 
     71 C71        34.6800   24.5182    2.2454 C.3       12 UNK         0.0203 
     72 H72        32.2159   26.8081   -1.5473 H         1 UNK         0.0888 
     73 H73        33.5159   26.0384   -0.6331 H         1 UNK         0.0888 
     74 H74        32.8399   25.2372   -2.0538 H         1 UNK         0.0888 
     75 H75        31.5982   23.4923   -1.4085 H         1 UNK         0.3017 
     76 H76        30.3278   23.4163    1.2081 H         1 UNK         0.0873 
     77 H77        31.6419   21.4677   -0.0789 H         1 UNK         0.0745 
     78 H78        30.1301   21.1984   -0.8865 H         1 UNK         0.0745 
     79 H79        32.3321   20.0716    1.9455 H         1 UNK         0.0705 
     80 H80        31.3307   19.9400    3.3734 H         1 UNK         0.0705 
     81 H81        33.8151   21.9481    1.9011 H         1 UNK         0.1334 
     82 H82        32.6780   25.6776    3.6689 H         1 UNK         0.1417 
     83 H83        30.1059   22.2821    4.0368 H         1 UNK         0.1562 
     84 H84        30.6534   25.9100    4.8781 H         1 UNK         0.0748 
     85 H85        29.8612   24.4767    5.5136 H         1 UNK         0.0748 
     86 H86        28.2547   26.7522    5.1109 H         1 UNK         0.0940 
     87 H87        26.9226   26.3451    4.0594 H         1 UNK         0.0940 
     88 H88        29.2752   28.1870    3.3760 H         1 UNK         0.0703 
     89 H89        27.5914   26.8282    1.5329 H         1 UNK         0.3081 
     90 H90        27.5832   29.2398   -1.0377 H         1 UNK         0.0719 
     91 H91        28.8833   27.8078   -2.4956 H         1 UNK         0.0809 
     92 H92        29.9871   28.4430   -1.2840 H         1 UNK         0.0809 
     93 H93        29.3934   26.7923   -1.1527 H         1 UNK         0.0809 
     94 H94        27.0178   26.4628   -1.1693 H         1 UNK         0.2990 
     95 H95        23.8889   26.4451    0.4259 H         1 UNK         0.0690 
     96 H96        23.2434   27.6136   -1.6924 H         1 UNK         0.0788 
     97 H97        22.9221   25.8909   -1.7869 H         1 UNK         0.0788 
     98 H98        24.3272   26.5743   -2.6072 H         1 UNK         0.0788 
     99 H99        24.9618   24.5096   -1.2928 H         1 UNK         0.2993 
    100 H100       25.9148   22.5135    1.1471 H         1 UNK         0.0949 
    101 H101       26.2943   22.9055   -1.8751 H         1 UNK         0.0767 
    102 H102       26.2433   21.3619   -1.0364 H         1 UNK         0.0767 
    103 H103       24.8188   22.3787   -1.0658 H         1 UNK         0.0767 
    104 H104       28.1083   22.3855    1.2989 H         1 UNK         0.3013 
    105 H105       25.9665   28.8069    2.3603 H         1 UNK         0.3121 
    106 H106       25.4144   30.6388    4.6218 H         1 UNK         0.0774 
    107 H107       23.7426   29.9093    2.1571 H         1 UNK         0.0815 
    108 H108       23.2131   30.8852    3.5188 H         1 UNK         0.0815 
    109 H109       23.5787   29.1840    3.7563 H         1 UNK         0.0815 
    110 H110       26.5755   30.6817    1.2968 H         1 UNK         0.2987 
    111 H111       25.9930   33.4746    0.7924 H         1 UNK         0.0949 
    112 H112       27.8389   31.5636   -0.7330 H         1 UNK         0.0806 
    113 H113       26.1052   31.7295   -1.0240 H         1 UNK         0.0806 
    114 H114       27.1858   33.0837   -1.3168 H         1 UNK         0.0806 
    115 H115       28.8872   31.6301    1.8819 H         1 UNK         0.3010 
    116 H116       30.1671   34.1000    2.7972 H         1 UNK         0.0829 
    117 H117       30.9533   33.9387    0.4115 H         1 UNK         0.0813 
    118 H118       32.2771   33.5917    1.5089 H         1 UNK         0.0813 
    119 H119       31.4611   32.2724    0.6799 H         1 UNK         0.0813 
    120 H120       32.1264   33.5918    4.0515 H         1 UNK         0.3038 
    121 H121       31.7839   31.2762    5.7779 H         1 UNK         0.0769 
    122 H122       33.8867   33.5059    5.7675 H         1 UNK         0.0811 
    123 H123       33.6404   32.3292    7.0503 H         1 UNK         0.0811 
    124 H124       32.3866   33.5046    6.6963 H         1 UNK         0.0811 
    125 H125       32.0802   30.0566    3.5468 H         1 UNK         0.3204 
    126 H126       34.7028   29.4571    2.5867 H         1 UNK         0.0748 
    127 H127       33.5368   27.5755    1.4393 H         1 UNK         0.0771 
    128 H128       32.1203   27.7933    2.4581 H         1 UNK         0.0771 
    129 H129       32.5833   29.0396    1.3052 H         1 UNK         0.0771 
    130 H130       36.1641   27.8733    3.1307 H         1 UNK         0.2980 
    131 H131       37.3726   26.5340    4.3723 H         1 UNK         0.0545 
    132 H132       36.6429   28.7999    7.4208 H         1 UNK         0.3459 
    133 H133       36.0746   29.0762    5.7939 H         1 UNK         0.3459 
    134 H134       36.2373   24.5600    5.6159 H         1 UNK         0.0616 
    135 H135       34.7209   25.1517    5.0280 H         1 UNK         0.0616 
    136 H136       34.8814   24.1327    1.2450 H         1 UNK         0.0634 
    137 H137       34.5355   25.5907    2.1262 H         1 UNK         0.0634 
@<TRIPOS>BOND
     1    1    2 1    
     2    1   72 1    
     3    1   73 1    
     4    1   74 1    
     5    2    3 2    
     6    2    4 am   BACKBONE|DICT|INTERRES
     7    4    5 1    
     8    4   75 1    
     9    5    6 1    
    10    5   35 1    
    11    5   76 1    
    12    6    7 1    
    13    6   77 1    
    14    6   78 1    
    15    7    8 1    
    16    8    9 1    
    17    8   79 1    
    18    8   80 1    
    19    9   10 ar   
    20    9   14 ar   
    21   10   11 ar   
    22   10   81 1    
    23   11   12 ar   
    24   11   71 1    
    25   12   13 ar   
    26   12   82 1    
    27   13   14 ar   
    28   13   15 1    
    29   14   83 1    
    30   15   16 1    
    31   15   84 1    
    32   15   85 1    
    33   16   17 1    
    34   17   18 1    
    35   17   86 1    
    36   17   87 1    
    37   18   19 1    
    38   18   37 1    
    39   18   88 1    
    40   19   20 am   BACKBONE|DICT|INTERRES
    41   19   89 1    
    42   20   21 2    
    43   20   22 1    
    44   22   23 1    
    45   22   24 1    
    46   22   90 1    
    47   23   91 1    
    48   23   92 1    
    49   23   93 1    
    50   24   25 am   BACKBONE|DICT|INTERRES
    51   24   94 1    
    52   25   26 2    
    53   25   27 1    
    54   27   28 1    
    55   27   29 1    
    56   27   95 1    
    57   28   96 1    
    58   28   97 1    
    59   28   98 1    
    60   29   30 am   BACKBONE|DICT|INTERRES
    61   29   99 1    
    62   30   31 2    
    63   30   32 1    
    64   32   33 1    
    65   32   34 1    
    66   32  100 1    
    67   33  101 1    
    68   33  102 1    
    69   33  103 1    
    70   34   35 am   BACKBONE|DICT|INTERRES
    71   34  104 1    
    72   35   36 2    
    73   37   38 2    
    74   37   39 am   BACKBONE|DICT|INTERRES
    75   39   40 1    
    76   39  105 1    
    77   40   41 1    
    78   40   42 1    
    79   40  106 1    
    80   41  107 1    
    81   41  108 1    
    82   41  109 1    
    83   42   43 2    
    84   42   44 am   BACKBONE|DICT|INTERRES
    85   44   45 1    
    86   44  110 1    
    87   45   46 1    
    88   45   47 1    
    89   45  111 1    
    90   46  112 1    
    91   46  113 1    
    92   46  114 1    
    93   47   48 2    
    94   47   49 am   BACKBONE|DICT|INTERRES
    95   49   50 1    
    96   49  115 1    
    97   50   51 1    
    98   50   52 1    
    99   50  116 1    
   100   51  117 1    
   101   51  118 1    
   102   51  119 1    
   103   52   53 2    
   104   52   54 am   BACKBONE|DICT|INTERRES
   105   54   55 1    
   106   54  120 1    
   107   55   56 1    
   108   55   57 1    
   109   55  121 1    
   110   56  122 1    
   111   56  123 1    
   112   56  124 1    
   113   57   58 2    
   114   57   59 am   BACKBONE|DICT|INTERRES
   115   59   60 1    
   116   59  125 1    
   117   60   61 1    
   118   60   62 1    
   119   60  126 1    
   120   61  127 1    
   121   61  128 1    
   122   61  129 1    
   123   62   63 2    
   124   62   64 am   BACKBONE|DICT|INTERRES
   125   64   65 1    
   126   64  130 1    
   127   65   66 1    
   128   65   69 1    
   129   65  131 1    
   130   66   67 am   BACKBONE|DICT|INTERRES
   131   66   68 2    
   132   67  132 1    
   133   67  133 1    
   134   69   70 1    
   135   69  134 1    
   136   69  135 1    
   137   70   71 1    
   138   71  136 1    
   139   71  137 1    
@<TRIPOS>SUBSTRUCTURE
     1 UNK         1 GROUP             0       ****    0 ROOT    
