@<TRIPOS>MOLECULE
3R136
137   139    1
SMALL
USER_CHARGES


@<TRIPOS>ATOM
      1 CA         25.2603   20.7870    2.5147 C.3       0 UNK        -0.1979 
      2 C          26.0105   22.0430    2.9314 C.2       0 UNK         0.4864 
      3 O          25.6614   22.6560    3.9410 O.2       0 UNK        -0.5359 
      4 N          27.0240   22.4440    2.1499 N.am      1 UNK        -0.4318 
      5 CA         27.9199   23.5955    2.3472 C.3       1 UNK         0.0824 
      6 C6         28.7134   23.5323    3.6819 C.3       12 UNK        -0.0944 
      7 S7         30.3082   24.4094    3.5837 S.3       12 UNK        -0.2672 
      8 C8         31.3756   23.0913    2.9232 C.3       12 UNK         0.0333 
      9 C9         32.5498   23.6720    2.1521 C.ar      12 UNK        -0.0807 
     10 C10        33.8642   23.4460    2.5693 C.ar      12 UNK        -0.0894 
     11 C11        34.9387   23.9693    1.8420 C.ar      12 UNK        -0.0804 
     12 C12        34.6904   24.7390    0.7002 C.ar      12 UNK        -0.0824 
     13 C13        33.3784   24.9685    0.2742 C.ar      12 UNK        -0.0762 
     14 C14        32.3155   24.4201    0.9961 C.ar      12 UNK        -0.0782 
     15 C15        33.1004   25.7864   -0.9783 C.3       12 UNK         0.0230 
     16 S16        33.3021   27.5802   -0.7209 S.3       12 UNK        -0.2608 
     17 C17        32.2018   27.9636    0.6862 C.3       12 UNK        -0.0989 
     18 CA         30.8392   28.5634    0.2594 C.3       5 UNK         0.0716 
     19 N          30.0177   27.6101   -0.4956 N.am      5 UNK        -0.4135 
     20 C          28.7841   27.8249   -0.9761 C.2       4 UNK         0.5031 
     21 O          28.1308   28.8459   -0.7562 O.2       4 UNK        -0.5229 
     22 CA         28.1713   26.7303   -1.8657 C.3       4 UNK         0.0329 
     23 CB         29.0483   25.4715   -2.0364 C.3       4 UNK        -0.2001 
     24 N          26.8864   26.3375   -1.2991 N.am      4 UNK        -0.4303 
     25 C          25.7178   26.2967   -1.9530 C.2       3 UNK         0.5044 
     26 O          25.5890   26.5979   -3.1407 O.2       3 UNK        -0.5152 
     27 CA         24.4777   25.8090   -1.1740 C.3       3 UNK         0.0319 
     28 CB         23.9943   24.4558   -1.7233 C.3       3 UNK        -0.2001 
     29 N          24.7163   25.6690    0.2639 N.am      3 UNK        -0.4354 
     30 C          24.7431   26.6830    1.1390 C.2       2 UNK         0.4964 
     31 O          24.4453   27.8410    0.8517 O.2       2 UNK        -0.5047 
     32 CA         25.2013   26.3567    2.5713 C.3       2 UNK         0.0288 
     33 CB         23.9915   26.2216    3.5089 C.3       2 UNK        -0.2113 
     34 N          26.0271   25.1468    2.6779 N.am      2 UNK        -0.4145 
     35 C          27.2386   24.9653    2.1339 C.2       1 UNK         0.5006 
     36 O          27.8092   25.8234    1.4577 O.2       1 UNK        -0.5103 
     37 C          30.1304   29.1716    1.4847 C.2       5 UNK         0.5055 
     38 O          30.2048   30.3878    1.6681 O.2       5 UNK        -0.5220 
     39 N          29.4343   28.3488    2.2868 N.am      6 UNK        -0.4450 
     40 CA         28.8061   28.7800    3.5439 C.3       6 UNK         0.0367 
     41 CB         28.5329   27.5792    4.4613 C.3       6 UNK        -0.1929 
     42 C          27.5727   29.6888    3.3825 C.2       6 UNK         0.5070 
     43 O          27.0316   30.1367    4.3934 O.2       6 UNK        -0.5237 
     44 N          27.1857   30.0135    2.1393 N.am      7 UNK        -0.4739 
     45 CA         26.3243   31.1588    1.8287 C.3       7 UNK         0.0276 
     46 CB         25.9450   31.1266    0.3400 C.3       7 UNK        -0.1927 
     47 C          26.9937   32.5052    2.1782 C.2       7 UNK         0.5013 
     48 O          26.2858   33.4608    2.4985 O.2       7 UNK        -0.5193 
     49 N          28.3337   32.5463    2.1285 N.am      8 UNK        -0.4253 
     50 CA         29.1673   33.6525    2.5902 C.3       8 UNK         0.0242 
     51 CB         30.1798   34.0309    1.4937 C.3       8 UNK        -0.2000 
     52 C          29.8656   33.2449    3.8957 C.2       8 UNK         0.4948 
     53 O          29.5731   33.8263    4.9411 O.2       8 UNK        -0.5275 
     54 N          30.7507   32.2428    3.8170 N.am      9 UNK        -0.4246 
     55 CA         31.5173   31.6620    4.9185 C.3       9 UNK         0.0261 
     56 CB         32.5221   32.6768    5.5013 C.3       9 UNK        -0.1959 
     57 C          32.2626   30.4343    4.3821 C.2       9 UNK         0.5033 
     58 O          32.7919   30.4904    3.2699 O.2       9 UNK        -0.5390 
     59 N          32.3017   29.3561    5.1756 N.am      10 UNK        -0.4215 
     60 CA         33.0171   28.1157    4.8553 C.3       10 UNK         0.0240 
     61 CB         32.5937   27.0211    5.8499 C.3       10 UNK        -0.1982 
     62 C          34.5469   28.3022    4.8701 C.2       10 UNK         0.4970 
     63 O          35.0448   29.2774    5.4398 O.2       10 UNK        -0.4916 
     64 N          35.2595   27.3525    4.2519 N.am      11 UNK        -0.4279 
     65 CA         36.7269   27.3250    4.1592 C.3       11 UNK         0.1003 
     66 C          37.4643   27.2985    5.5320 C.2       11 UNK         0.5709 
     67 N          38.6984   27.7833    5.5785 N.am      11 UNK        -0.7358 
     68 O          36.9477   26.8182    6.5400 O.2       11 UNK        -0.4999 
     69 C69        37.2094   26.1932    3.2127 C.3       12 UNK        -0.0954 
     70 S70        36.8252   24.5090    3.8085 S.3       12 UNK        -0.2268 
     71 C71        36.3655   23.6585    2.2692 C.3       12 UNK         0.0203 
     72 H72        25.6664   20.3519    1.6017 H         1 UNK         0.0888 
     73 H73        25.3200   20.0371    3.3030 H         1 UNK         0.0888 
     74 H74        24.2093   21.0176    2.3426 H         1 UNK         0.0888 
     75 H75        27.2266   21.8986    1.3229 H         1 UNK         0.3017 
     76 H76        28.6395   23.5014    1.5322 H         1 UNK         0.0873 
     77 H77        28.9168   22.4956    3.9554 H         1 UNK         0.0745 
     78 H78        28.1316   23.9437    4.5091 H         1 UNK         0.0745 
     79 H79        30.8050   22.4472    2.2527 H         1 UNK         0.0705 
     80 H80        31.7146   22.4610    3.7468 H         1 UNK         0.0705 
     81 H81        34.0562   22.8526    3.4531 H         1 UNK         0.1334 
     82 H82        35.5153   25.1495    0.1338 H         1 UNK         0.1417 
     83 H83        31.2975   24.5841    0.6705 H         1 UNK         0.1562 
     84 H84        32.0980   25.5853   -1.3543 H         1 UNK         0.0748 
     85 H85        33.7819   25.4712   -1.7699 H         1 UNK         0.0748 
     86 H86        32.7492   28.6817    1.3005 H         1 UNK         0.0940 
     87 H87        32.0605   27.0920    1.3246 H         1 UNK         0.0940 
     88 H88        31.0394   29.3949   -0.4197 H         1 UNK         0.0703 
     89 H89        30.4663   26.7411   -0.7345 H         1 UNK         0.3081 
     90 H90        28.0299   27.1826   -2.8493 H         1 UNK         0.0719 
     91 H91        28.5491   24.7369   -2.6687 H         1 UNK         0.0809 
     92 H92        29.9939   25.7094   -2.5245 H         1 UNK         0.0809 
     93 H93        29.2620   24.9862   -1.0829 H         1 UNK         0.0809 
     94 H94        26.9026   26.1430   -0.3037 H         1 UNK         0.2990 
     95 H95        23.6851   26.5441   -1.3296 H         1 UNK         0.0690 
     96 H96        23.7610   24.5259   -2.7867 H         1 UNK         0.0788 
     97 H97        23.0877   24.1227   -1.2174 H         1 UNK         0.0788 
     98 H98        24.7506   23.6784   -1.6067 H         1 UNK         0.0788 
     99 H99        24.9511   24.7457    0.5968 H         1 UNK         0.2993 
    100 H100       25.7996   27.2051    2.9063 H         1 UNK         0.0949 
    101 H101       23.3643   25.3714    3.2375 H         1 UNK         0.0767 
    102 H102       24.3062   26.0898    4.5444 H         1 UNK         0.0767 
    103 H103       23.3663   27.1151    3.4729 H         1 UNK         0.0767 
    104 H104       25.6574   24.3765    3.2320 H         1 UNK         0.3013 
    105 H105       29.3100   27.3784    2.0213 H         1 UNK         0.3121 
    106 H106       29.5394   29.3958    4.0656 H         1 UNK         0.0774 
    107 H107       27.7881   26.9067    4.0485 H         1 UNK         0.0815 
    108 H108       28.1638   27.9063    5.4341 H         1 UNK         0.0815 
    109 H109       29.4413   27.0078    4.6427 H         1 UNK         0.0815 
    110 H110       27.6562   29.5795    1.3533 H         1 UNK         0.2987 
    111 H111       25.4119   31.0709    2.4225 H         1 UNK         0.0949 
    112 H112       26.8200   31.2385   -0.3015 H         1 UNK         0.0806 
    113 H113       25.4550   30.1907    0.0728 H         1 UNK         0.0806 
    114 H114       25.2552   31.9355    0.0959 H         1 UNK         0.0806 
    115 H115       28.8327   31.6962    1.8777 H         1 UNK         0.3010 
    116 H116       28.5551   34.5322    2.8005 H         1 UNK         0.0829 
    117 H117       29.6714   34.4089    0.6066 H         1 UNK         0.0813 
    118 H118       30.8543   34.8155    1.8391 H         1 UNK         0.0813 
    119 H119       30.7926   33.1827    1.1857 H         1 UNK         0.0813 
    120 H120       30.8912   31.7711    2.9254 H         1 UNK         0.3038 
    121 H121       30.8182   31.3499    5.6969 H         1 UNK         0.0769 
    122 H122       33.1898   33.0649    4.7310 H         1 UNK         0.0811 
    123 H123       33.1447   32.2133    6.2678 H         1 UNK         0.0811 
    124 H124       32.0201   33.5240    5.9677 H         1 UNK         0.0811 
    125 H125       31.8900   29.4118    6.0958 H         1 UNK         0.3204 
    126 H126       32.7202   27.8061    3.8508 H         1 UNK         0.0748 
    127 H127       32.8884   27.2678    6.8708 H         1 UNK         0.0771 
    128 H128       31.5150   26.8670    5.8394 H         1 UNK         0.0771 
    129 H129       33.0531   26.0635    5.6008 H         1 UNK         0.0771 
    130 H130       34.7841   26.5577    3.8511 H         1 UNK         0.2980 
    131 H131       37.0026   28.2699    3.6867 H         1 UNK         0.0545 
    132 H132       39.1983   27.7642    6.4536 H         1 UNK         0.3459 
    133 H133       39.1398   28.1691    4.7584 H         1 UNK         0.3459 
    134 H134       36.7646   26.3360    2.2269 H         1 UNK         0.0616 
    135 H135       38.2877   26.2603    3.0584 H         1 UNK         0.0616 
    136 H136       36.4603   22.5831    2.4258 H         1 UNK         0.0634 
    137 H137       37.0785   23.9146    1.4838 H         1 UNK         0.0634 
@<TRIPOS>BOND
     1    1    2 1    
     2    1   72 1    
     3    1   73 1    
     4    1   74 1    
     5    2    3 2    
     6    2    4 am   BACKBONE|DICT|INTERRES
     7    4    5 1    
     8    4   75 1    
     9    5    6 1    
    10    5   35 1    
    11    5   76 1    
    12    6    7 1    
    13    6   77 1    
    14    6   78 1    
    15    7    8 1    
    16    8    9 1    
    17    8   79 1    
    18    8   80 1    
    19    9   10 ar   
    20    9   14 ar   
    21   10   11 ar   
    22   10   81 1    
    23   11   12 ar   
    24   11   71 1    
    25   12   13 ar   
    26   12   82 1    
    27   13   14 ar   
    28   13   15 1    
    29   14   83 1    
    30   15   16 1    
    31   15   84 1    
    32   15   85 1    
    33   16   17 1    
    34   17   18 1    
    35   17   86 1    
    36   17   87 1    
    37   18   19 1    
    38   18   37 1    
    39   18   88 1    
    40   19   20 am   BACKBONE|DICT|INTERRES
    41   19   89 1    
    42   20   21 2    
    43   20   22 1    
    44   22   23 1    
    45   22   24 1    
    46   22   90 1    
    47   23   91 1    
    48   23   92 1    
    49   23   93 1    
    50   24   25 am   BACKBONE|DICT|INTERRES
    51   24   94 1    
    52   25   26 2    
    53   25   27 1    
    54   27   28 1    
    55   27   29 1    
    56   27   95 1    
    57   28   96 1    
    58   28   97 1    
    59   28   98 1    
    60   29   30 am   BACKBONE|DICT|INTERRES
    61   29   99 1    
    62   30   31 2    
    63   30   32 1    
    64   32   33 1    
    65   32   34 1    
    66   32  100 1    
    67   33  101 1    
    68   33  102 1    
    69   33  103 1    
    70   34   35 am   BACKBONE|DICT|INTERRES
    71   34  104 1    
    72   35   36 2    
    73   37   38 2    
    74   37   39 am   BACKBONE|DICT|INTERRES
    75   39   40 1    
    76   39  105 1    
    77   40   41 1    
    78   40   42 1    
    79   40  106 1    
    80   41  107 1    
    81   41  108 1    
    82   41  109 1    
    83   42   43 2    
    84   42   44 am   BACKBONE|DICT|INTERRES
    85   44   45 1    
    86   44  110 1    
    87   45   46 1    
    88   45   47 1    
    89   45  111 1    
    90   46  112 1    
    91   46  113 1    
    92   46  114 1    
    93   47   48 2    
    94   47   49 am   BACKBONE|DICT|INTERRES
    95   49   50 1    
    96   49  115 1    
    97   50   51 1    
    98   50   52 1    
    99   50  116 1    
   100   51  117 1    
   101   51  118 1    
   102   51  119 1    
   103   52   53 2    
   104   52   54 am   BACKBONE|DICT|INTERRES
   105   54   55 1    
   106   54  120 1    
   107   55   56 1    
   108   55   57 1    
   109   55  121 1    
   110   56  122 1    
   111   56  123 1    
   112   56  124 1    
   113   57   58 2    
   114   57   59 am   BACKBONE|DICT|INTERRES
   115   59   60 1    
   116   59  125 1    
   117   60   61 1    
   118   60   62 1    
   119   60  126 1    
   120   61  127 1    
   121   61  128 1    
   122   61  129 1    
   123   62   63 2    
   124   62   64 am   BACKBONE|DICT|INTERRES
   125   64   65 1    
   126   64  130 1    
   127   65   66 1    
   128   65   69 1    
   129   65  131 1    
   130   66   67 am   BACKBONE|DICT|INTERRES
   131   66   68 2    
   132   67  132 1    
   133   67  133 1    
   134   69   70 1    
   135   69  134 1    
   136   69  135 1    
   137   70   71 1    
   138   71  136 1    
   139   71  137 1    
@<TRIPOS>SUBSTRUCTURE
     1 UNK         1 GROUP             0       ****    0 ROOT    
