@<TRIPOS>MOLECULE
3R136
137   139    1
SMALL
USER_CHARGES


@<TRIPOS>ATOM
      1 CA         32.4312   27.4651   -2.1092 C.3       0 UNK        -0.1979 
      2 C          31.0018   27.0140   -1.8513 C.2       0 UNK         0.4864 
      3 O          30.0784   27.4962   -2.5101 O.2       0 UNK        -0.5359 
      4 N          30.8115   26.0772   -0.9128 N.am      1 UNK        -0.4318 
      5 CA         29.5205   25.5417   -0.4607 C.3       1 UNK         0.0824 
      6 C6         29.6153   24.9637    0.9765 C.3       12 UNK        -0.0944 
      7 S7         30.9080   23.6877    1.1781 S.3       12 UNK        -0.2672 
      8 C8         30.1958   22.6641    2.5097 C.3       12 UNK         0.0333 
      9 C9         30.0363   23.4248    3.8224 C.ar      12 UNK        -0.0807 
     10 C10        31.1065   24.1483    4.3565 C.ar      12 UNK        -0.0894 
     11 C11        30.9673   24.8531    5.5544 C.ar      12 UNK        -0.0804 
     12 C12        29.7426   24.8215    6.2300 C.ar      12 UNK        -0.0824 
     13 C13        28.6688   24.0762    5.7273 C.ar      12 UNK        -0.0762 
     14 C14        28.8268   23.3778    4.5231 C.ar      12 UNK        -0.0782 
     15 C15        27.3732   23.9774    6.5329 C.3       12 UNK         0.0230 
     16 S16        25.8503   24.0915    5.5307 S.3       12 UNK        -0.2608 
     17 C17        25.8848   25.8352    4.9973 C.3       12 UNK        -0.0989 
     18 CA         26.3734   25.9858    3.5321 C.3       5 UNK         0.0716 
     19 N          25.5578   25.2509    2.5606 N.am      5 UNK        -0.4135 
     20 C          24.3068   25.5315    2.1740 C.2       4 UNK         0.5031 
     21 O          23.6363   26.4770    2.5938 O.2       4 UNK        -0.5229 
     22 CA         23.7201   24.5873    1.1080 C.3       4 UNK         0.0329 
     23 CB         22.2500   24.2474    1.4123 C.3       4 UNK        -0.2001 
     24 N          23.8170   25.0988   -0.2647 N.am      4 UNK        -0.4303 
     25 C          24.9055   25.5921   -0.8724 C.2       3 UNK         0.5044 
     26 O          25.9882   25.8035   -0.3156 O.2       3 UNK        -0.5152 
     27 CA         24.7580   25.8986   -2.3713 C.3       3 UNK         0.0319 
     28 CB         24.3063   27.3493   -2.5990 C.3       3 UNK        -0.2001 
     29 N          26.0499   25.6886   -3.0194 N.am      3 UNK        -0.4354 
     30 C          26.4596   24.5261   -3.5448 C.2       2 UNK         0.4964 
     31 O          25.7177   23.5711   -3.7777 O.2       2 UNK        -0.5047 
     32 CA         27.9705   24.3968   -3.8051 C.3       2 UNK         0.0288 
     33 CB         28.3505   25.0072   -5.1637 C.3       2 UNK        -0.2113 
     34 N          28.7526   25.0363   -2.7436 N.am      2 UNK        -0.4145 
     35 C          28.8487   24.5902   -1.4828 C.2       1 UNK         0.5006 
     36 O          28.4133   23.4936   -1.1246 O.2       1 UNK        -0.5103 
     37 C          26.6189   27.4541    3.1244 C.2       5 UNK         0.5055 
     38 O          26.6520   28.3345    3.9882 O.2       5 UNK        -0.5220 
     39 N          26.8357   27.6990    1.8222 N.am      6 UNK        -0.4450 
     40 CA         27.3546   28.9659    1.2995 C.3       6 UNK         0.0367 
     41 CB         27.0812   29.0569   -0.2109 C.3       6 UNK        -0.1929 
     42 C          28.8495   29.0993    1.6441 C.2       6 UNK         0.5070 
     43 O          29.7114   28.8224    0.8096 O.2       6 UNK        -0.5237 
     44 N          29.1197   29.4506    2.9057 N.am      7 UNK        -0.4739 
     45 CA         30.4398   29.5176    3.5267 C.3       7 UNK         0.0276 
     46 CB         30.2579   29.5532    5.0556 C.3       7 UNK        -0.1927 
     47 C          31.2744   30.7007    3.0087 C.2       7 UNK         0.5013 
     48 O          31.4339   31.7020    3.7118 O.2       7 UNK        -0.5193 
     49 N          31.7955   30.5624    1.7829 N.am      8 UNK        -0.4253 
     50 CA         32.7387   31.4848    1.1468 C.3       8 UNK         0.0242 
     51 CB         33.1133   30.9497   -0.2443 C.3       8 UNK        -0.2000 
     52 C          33.9922   31.6743    2.0167 C.2       8 UNK         0.4948 
     53 O          34.6050   30.6807    2.4158 O.2       8 UNK        -0.5275 
     54 N          34.2977   32.9368    2.3518 N.am      9 UNK        -0.4246 
     55 CA         35.3465   33.3670    3.2896 C.3       9 UNK         0.0261 
     56 CB         36.7448   33.1329    2.6783 C.3       9 UNK        -0.1959 
     57 C          35.2050   32.7437    4.6971 C.2       9 UNK         0.5033 
     58 O          36.2153   32.4842    5.3542 O.2       9 UNK        -0.5390 
     59 N          33.9576   32.4645    5.1133 N.am      10 UNK        -0.4215 
     60 CA         33.5676   31.7552    6.3396 C.3       10 UNK         0.0240 
     61 CB         33.8782   32.6107    7.5868 C.3       10 UNK        -0.1982 
     62 C          34.1498   30.3277    6.4338 C.2       10 UNK         0.4970 
     63 O          34.3604   29.8342    7.5428 O.2       10 UNK        -0.4916 
     64 N          34.4184   29.7057    5.2751 N.am      11 UNK        -0.4279 
     65 CA         35.1365   28.4305    5.1166 C.3       11 UNK         0.1003 
     66 C          36.6469   28.4979    5.5061 C.2       11 UNK         0.5709 
     67 N          37.2508   29.6722    5.6590 N.am      11 UNK        -0.7358 
     68 O          37.3010   27.4661    5.6406 O.2       11 UNK        -0.4999 
     69 C69        34.4002   27.2137    5.7521 C.3       12 UNK        -0.0954 
     70 S70        32.7396   26.9376    5.0547 S.3       12 UNK        -0.2268 
     71 C71        32.1642   25.5928    6.1377 C.3       12 UNK         0.0203 
     72 H72        32.7655   27.1127   -3.0845 H         1 UNK         0.0888 
     73 H73        32.4863   28.5529   -2.1032 H         1 UNK         0.0888 
     74 H74        33.1196   27.0875   -1.3533 H         1 UNK         0.0888 
     75 H75        31.6117   25.6881   -0.4341 H         1 UNK         0.3017 
     76 H76        28.8396   26.3906   -0.3903 H         1 UNK         0.0873 
     77 H77        28.6493   24.5659    1.2931 H         1 UNK         0.0745 
     78 H78        29.8391   25.7710    1.6764 H         1 UNK         0.0745 
     79 H79        30.8475   21.8062    2.6793 H         1 UNK         0.0705 
     80 H80        29.2392   22.2638    2.1700 H         1 UNK         0.0705 
     81 H81        32.0544   24.1666    3.8358 H         1 UNK         0.1334 
     82 H82        29.6369   25.3503    7.1676 H         1 UNK         0.1417 
     83 H83        28.0065   22.7892    4.1355 H         1 UNK         0.1562 
     84 H84        27.3395   24.7435    7.3092 H         1 UNK         0.0748 
     85 H85        27.3697   23.0186    7.0529 H         1 UNK         0.0748 
     86 H86        26.5258   26.3946    5.6815 H         1 UNK         0.0940 
     87 H87        24.8841   26.2556    5.1112 H         1 UNK         0.0940 
     88 H88        27.3628   25.5313    3.4777 H         1 UNK         0.0703 
     89 H89        26.0192   24.4724    2.1131 H         1 UNK         0.3081 
     90 H90        24.2827   23.6519    1.1391 H         1 UNK         0.0719 
     91 H91        21.6055   25.1228    1.3211 H         1 UNK         0.0809 
     92 H92        21.8704   23.4789    0.7388 H         1 UNK         0.0809 
     93 H93        22.1398   23.8672    2.4290 H         1 UNK         0.0809 
     94 H94        22.9779   25.0064   -0.8187 H         1 UNK         0.2990 
     95 H95        24.0102   25.2287   -2.8013 H         1 UNK         0.0690 
     96 H96        25.0460   28.0656   -2.2442 H         1 UNK         0.0788 
     97 H97        23.3705   27.5574   -2.0787 H         1 UNK         0.0788 
     98 H98        24.1382   27.5455   -3.6581 H         1 UNK         0.0788 
     99 H99        26.7529   26.3861   -2.8246 H         1 UNK         0.2993 
    100 H100       28.2180   23.3331   -3.8212 H         1 UNK         0.0949 
    101 H101       29.4093   24.8623   -5.3797 H         1 UNK         0.0767 
    102 H102       27.7878   24.5386   -5.9724 H         1 UNK         0.0767 
    103 H103       28.1450   26.0779   -5.1992 H         1 UNK         0.0767 
    104 H104       29.1566   25.9505   -2.9390 H         1 UNK         0.3013 
    105 H105       26.7207   26.9425    1.1534 H         1 UNK         0.3121 
    106 H106       26.8241   29.7923    1.7777 H         1 UNK         0.0774 
    107 H107       27.5144   28.2234   -0.7626 H         1 UNK         0.0815 
    108 H108       26.0101   29.0723   -0.4069 H         1 UNK         0.0815 
    109 H109       27.4998   29.9738   -0.6277 H         1 UNK         0.0815 
    110 H110       28.3278   29.5803    3.5251 H         1 UNK         0.2987 
    111 H111       30.9795   28.6018    3.2763 H         1 UNK         0.0949 
    112 H112       31.2224   29.5848    5.5624 H         1 UNK         0.0806 
    113 H113       29.6893   30.4264    5.3776 H         1 UNK         0.0806 
    114 H114       29.7391   28.6628    5.4121 H         1 UNK         0.0806 
    115 H115       31.5189   29.7437    1.2521 H         1 UNK         0.3010 
    116 H116       32.2317   32.4443    1.0263 H         1 UNK         0.0829 
    117 H117       32.2328   30.8417   -0.8781 H         1 UNK         0.0813 
    118 H118       33.7981   31.6296   -0.7529 H         1 UNK         0.0813 
    119 H119       33.6049   29.9777   -0.1821 H         1 UNK         0.0813 
    120 H120       33.7161   33.6789    1.9856 H         1 UNK         0.3038 
    121 H121       35.2193   34.4422    3.4234 H         1 UNK         0.0769 
    122 H122       37.5247   33.5683    3.3041 H         1 UNK         0.0811 
    123 H123       36.8296   33.5910    1.6930 H         1 UNK         0.0811 
    124 H124       36.9675   32.0703    2.5748 H         1 UNK         0.0811 
    125 H125       33.1894   32.6480    4.4755 H         1 UNK         0.3204 
    126 H126       32.4849   31.6342    6.2879 H         1 UNK         0.0748 
    127 H127       33.4596   32.1588    8.4869 H         1 UNK         0.0771 
    128 H128       34.9515   32.7187    7.7466 H         1 UNK         0.0771 
    129 H129       33.4497   33.6091    7.4994 H         1 UNK         0.0771 
    130 H130       34.2599   30.2028    4.4057 H         1 UNK         0.2980 
    131 H131       35.1545   28.2584    4.0400 H         1 UNK         0.0545 
    132 H132       38.2290   29.6888    5.8984 H         1 UNK         0.3459 
    133 H133       36.7487   30.5462    5.5451 H         1 UNK         0.3459 
    134 H134       34.9677   26.2968    5.5839 H         1 UNK         0.0616 
    135 H135       34.3205   27.3251    6.8341 H         1 UNK         0.0616 
    136 H136       31.9294   26.0073    7.1193 H         1 UNK         0.0634 
    137 H137       32.9738   24.8771    6.2877 H         1 UNK         0.0634 
@<TRIPOS>BOND
     1    1    2 1    
     2    1   72 1    
     3    1   73 1    
     4    1   74 1    
     5    2    3 2    
     6    2    4 am   BACKBONE|DICT|INTERRES
     7    4    5 1    
     8    4   75 1    
     9    5    6 1    
    10    5   35 1    
    11    5   76 1    
    12    6    7 1    
    13    6   77 1    
    14    6   78 1    
    15    7    8 1    
    16    8    9 1    
    17    8   79 1    
    18    8   80 1    
    19    9   10 ar   
    20    9   14 ar   
    21   10   11 ar   
    22   10   81 1    
    23   11   12 ar   
    24   11   71 1    
    25   12   13 ar   
    26   12   82 1    
    27   13   14 ar   
    28   13   15 1    
    29   14   83 1    
    30   15   16 1    
    31   15   84 1    
    32   15   85 1    
    33   16   17 1    
    34   17   18 1    
    35   17   86 1    
    36   17   87 1    
    37   18   19 1    
    38   18   37 1    
    39   18   88 1    
    40   19   20 am   BACKBONE|DICT|INTERRES
    41   19   89 1    
    42   20   21 2    
    43   20   22 1    
    44   22   23 1    
    45   22   24 1    
    46   22   90 1    
    47   23   91 1    
    48   23   92 1    
    49   23   93 1    
    50   24   25 am   BACKBONE|DICT|INTERRES
    51   24   94 1    
    52   25   26 2    
    53   25   27 1    
    54   27   28 1    
    55   27   29 1    
    56   27   95 1    
    57   28   96 1    
    58   28   97 1    
    59   28   98 1    
    60   29   30 am   BACKBONE|DICT|INTERRES
    61   29   99 1    
    62   30   31 2    
    63   30   32 1    
    64   32   33 1    
    65   32   34 1    
    66   32  100 1    
    67   33  101 1    
    68   33  102 1    
    69   33  103 1    
    70   34   35 am   BACKBONE|DICT|INTERRES
    71   34  104 1    
    72   35   36 2    
    73   37   38 2    
    74   37   39 am   BACKBONE|DICT|INTERRES
    75   39   40 1    
    76   39  105 1    
    77   40   41 1    
    78   40   42 1    
    79   40  106 1    
    80   41  107 1    
    81   41  108 1    
    82   41  109 1    
    83   42   43 2    
    84   42   44 am   BACKBONE|DICT|INTERRES
    85   44   45 1    
    86   44  110 1    
    87   45   46 1    
    88   45   47 1    
    89   45  111 1    
    90   46  112 1    
    91   46  113 1    
    92   46  114 1    
    93   47   48 2    
    94   47   49 am   BACKBONE|DICT|INTERRES
    95   49   50 1    
    96   49  115 1    
    97   50   51 1    
    98   50   52 1    
    99   50  116 1    
   100   51  117 1    
   101   51  118 1    
   102   51  119 1    
   103   52   53 2    
   104   52   54 am   BACKBONE|DICT|INTERRES
   105   54   55 1    
   106   54  120 1    
   107   55   56 1    
   108   55   57 1    
   109   55  121 1    
   110   56  122 1    
   111   56  123 1    
   112   56  124 1    
   113   57   58 2    
   114   57   59 am   BACKBONE|DICT|INTERRES
   115   59   60 1    
   116   59  125 1    
   117   60   61 1    
   118   60   62 1    
   119   60  126 1    
   120   61  127 1    
   121   61  128 1    
   122   61  129 1    
   123   62   63 2    
   124   62   64 am   BACKBONE|DICT|INTERRES
   125   64   65 1    
   126   64  130 1    
   127   65   66 1    
   128   65   69 1    
   129   65  131 1    
   130   66   67 am   BACKBONE|DICT|INTERRES
   131   66   68 2    
   132   67  132 1    
   133   67  133 1    
   134   69   70 1    
   135   69  134 1    
   136   69  135 1    
   137   70   71 1    
   138   71  136 1    
   139   71  137 1    
@<TRIPOS>SUBSTRUCTURE
     1 UNK         1 GROUP             0       ****    0 ROOT    
