@<TRIPOS>MOLECULE
3R136
137   139    1
SMALL
USER_CHARGES


@<TRIPOS>ATOM
      1 CA         31.8471   29.7440   -2.7219 C.3       0 UNK        -0.1979 
      2 C          30.9972   29.1818   -1.5929 C.2       0 UNK         0.4864 
      3 O          30.6324   29.9215   -0.6789 O.2       0 UNK        -0.5359 
      4 N          30.6899   27.8843   -1.6528 N.am      1 UNK        -0.4318 
      5 CA         29.8854   27.1425   -0.6824 C.3       1 UNK         0.0824 
      6 C6         30.6732   26.7398    0.6001 C.3       12 UNK        -0.0944 
      7 S7         32.2253   25.8232    0.2922 S.3       12 UNK        -0.2672 
      8 C8         31.7814   24.0907    0.6725 C.3       12 UNK         0.0333 
      9 C9         31.3568   23.8446    2.1190 C.ar      12 UNK        -0.0807 
     10 C10        32.0744   24.4047    3.1829 C.ar      12 UNK        -0.0894 
     11 C11        31.7088   24.1401    4.5058 C.ar      12 UNK        -0.0804 
     12 C12        30.6282   23.2964    4.7634 C.ar      12 UNK        -0.0824 
     13 C13        29.8833   22.7507    3.7157 C.ar      12 UNK        -0.0762 
     14 C14        30.2583   23.0190    2.3943 C.ar      12 UNK        -0.0782 
     15 C15        28.6718   21.8804    4.0304 C.3       12 UNK         0.0230 
     16 S16        27.0881   22.7823    3.8953 S.3       12 UNK        -0.2608 
     17 C17        27.3693   24.2842    4.9027 C.3       12 UNK        -0.0989 
     18 CA         27.6322   25.4949    3.9729 C.3       5 UNK         0.0716 
     19 N          26.4051   25.9088    3.2728 N.am      5 UNK        -0.4135 
     20 C          26.3836   26.4405    2.0475 C.2       4 UNK         0.5031 
     21 O          27.4019   26.6919    1.3981 O.2       4 UNK        -0.5229 
     22 CA         25.0114   26.7509    1.4376 C.3       4 UNK         0.0329 
     23 CB         24.5401   28.1675    1.8027 C.3       4 UNK        -0.2001 
     24 N          25.1863   26.6354   -0.0017 N.am      4 UNK        -0.4303 
     25 C          24.3017   26.1788   -0.8931 C.2       3 UNK         0.5044 
     26 O          23.1036   26.0132   -0.6624 O.2       3 UNK        -0.5152 
     27 CA         24.8890   25.7781   -2.2619 C.3       3 UNK         0.0319 
     28 CB         24.9478   26.9890   -3.2063 C.3       3 UNK        -0.2001 
     29 N          26.2322   25.1989   -2.1224 N.am      3 UNK        -0.4354 
     30 C          26.4991   24.0477   -1.4875 C.2       2 UNK         0.4964 
     31 O          25.6330   23.2389   -1.1542 O.2       2 UNK        -0.5047 
     32 CA         27.9573   23.7800   -1.0793 C.3       2 UNK         0.0288 
     33 CB         28.7116   22.9666   -2.1505 C.3       2 UNK        -0.2113 
     34 N          28.6862   24.9903   -0.6620 N.am      2 UNK        -0.4145 
     35 C          29.1900   25.9767   -1.4168 C.2       1 UNK         0.5006 
     36 O          29.0830   26.0105   -2.6458 O.2       1 UNK        -0.5103 
     37 C          28.3739   26.6635    4.6648 C.2       5 UNK         0.5055 
     38 O          29.3991   26.4388    5.3081 O.2       5 UNK        -0.5220 
     39 N          27.8830   27.8927    4.4863 N.am      6 UNK        -0.4450 
     40 CA         28.5858   29.1396    4.7506 C.3       6 UNK         0.0367 
     41 CB         28.4596   29.5429    6.2305 C.3       6 UNK        -0.1929 
     42 C          27.9567   30.1756    3.8170 C.2       6 UNK         0.5070 
     43 O          26.7369   30.3528    3.8605 O.2       6 UNK        -0.5237 
     44 N          28.7722   30.8098    2.9731 N.am      7 UNK        -0.4739 
     45 CA         28.3409   31.8128    2.0027 C.3       7 UNK         0.0276 
     46 CB         27.7076   31.1379    0.7655 C.3       7 UNK        -0.1927 
     47 C          29.5276   32.7361    1.7056 C.2       7 UNK         0.5013 
     48 O          29.9320   33.4836    2.5981 O.2       7 UNK        -0.5193 
     49 N          30.0727   32.6774    0.4829 N.am      8 UNK        -0.4253 
     50 CA         31.2862   33.4025    0.0950 C.3       8 UNK         0.0242 
     51 CB         31.3880   33.4666   -1.4368 C.3       8 UNK        -0.2000 
     52 C          32.5434   32.7650    0.7095 C.2       8 UNK         0.4948 
     53 O          33.4588   33.4886    1.1042 O.2       8 UNK        -0.5275 
     54 N          32.5416   31.4310    0.8082 N.am      9 UNK        -0.4246 
     55 CA         33.4910   30.6375    1.5783 C.3       9 UNK         0.0261 
     56 CB         33.9572   29.4481    0.7224 C.3       9 UNK        -0.1959 
     57 C          32.8036   30.1392    2.8575 C.2       9 UNK         0.5033 
     58 O          31.5724   30.0576    2.9164 O.2       9 UNK        -0.5390 
     59 N          33.6240   29.7876    3.8486 N.am      10 UNK        -0.4215 
     60 CA         33.2343   29.1761    5.1127 C.3       10 UNK         0.0240 
     61 CB         32.7305   30.2485    6.0965 C.3       10 UNK        -0.1982 
     62 C          34.4572   28.4307    5.6607 C.2       10 UNK         0.4970 
     63 O          35.5864   28.7353    5.2653 O.2       10 UNK        -0.4916 
     64 N          34.2070   27.4678    6.5508 N.am      11 UNK        -0.4279 
     65 CA         35.2234   26.5746    7.1310 C.3       11 UNK         0.1003 
     66 C          35.8920   27.1323    8.4217 C.2       11 UNK         0.5709 
     67 N          35.4887   28.2872    8.9389 N.am      11 UNK        -0.7358 
     68 O          36.8072   26.5118    8.9579 O.2       11 UNK        -0.4999 
     69 C69        34.6511   25.1478    7.3512 C.3       12 UNK        -0.0954 
     70 S70        34.1716   24.3228    5.7931 S.3       12 UNK        -0.2268 
     71 C71        32.4263   24.8181    5.6613 C.3       12 UNK         0.0203 
     72 H72        32.7082   30.2729   -2.3146 H         1 UNK         0.0888 
     73 H73        32.2155   28.9595   -3.3825 H         1 UNK         0.0888 
     74 H74        31.2632   30.4443   -3.3180 H         1 UNK         0.0888 
     75 H75        30.9560   27.3368   -2.4607 H         1 UNK         0.3017 
     76 H76        29.0716   27.8001   -0.3691 H         1 UNK         0.0873 
     77 H77        30.9463   27.6500    1.1369 H         1 UNK         0.0745 
     78 H78        30.0477   26.1903    1.3039 H         1 UNK         0.0745 
     79 H79        31.0084   23.7628   -0.0209 H         1 UNK         0.0705 
     80 H80        32.6511   23.4659    0.4659 H         1 UNK         0.0705 
     81 H81        32.9168   25.0530    2.9847 H         1 UNK         0.1334 
     82 H82        30.3406   23.0956    5.7863 H         1 UNK         0.1417 
     83 H83        29.6929   22.5808    1.5834 H         1 UNK         0.1562 
     84 H84        28.7541   21.4633    5.0354 H         1 UNK         0.0748 
     85 H85        28.6497   21.0266    3.3518 H         1 UNK         0.0748 
     86 H86        28.1921   24.1099    5.5954 H         1 UNK         0.0940 
     87 H87        26.4953   24.4622    5.5313 H         1 UNK         0.0940 
     88 H88        28.3466   25.1609    3.2171 H         1 UNK         0.0703 
     89 H89        25.5335   25.7294    3.7507 H         1 UNK         0.3081 
     90 H90        24.2870   26.0104    1.7835 H         1 UNK         0.0719 
     91 H91        25.2598   28.9235    1.4891 H         1 UNK         0.0809 
     92 H92        23.5851   28.4000    1.3315 H         1 UNK         0.0809 
     93 H93        24.4053   28.2726    2.8799 H         1 UNK         0.0809 
     94 H94        26.1562   26.7118   -0.2805 H         1 UNK         0.2990 
     95 H95        24.2339   25.0241   -2.7033 H         1 UNK         0.0690 
     96 H96        25.3092   26.7034   -4.1944 H         1 UNK         0.0788 
     97 H97        25.6031   27.7721   -2.8226 H         1 UNK         0.0788 
     98 H98        23.9577   27.4275   -3.3384 H         1 UNK         0.0788 
     99 H99        27.0204   25.7621   -2.4211 H         1 UNK         0.2993 
    100 H100       27.9073   23.1582   -0.1838 H         1 UNK         0.0949 
    101 H101       28.7488   23.4825   -3.1100 H         1 UNK         0.0767 
    102 H102       29.7349   22.7522   -1.8439 H         1 UNK         0.0767 
    103 H103       28.2188   22.0089   -2.3230 H         1 UNK         0.0767 
    104 H104       28.7233   25.1354    0.3391 H         1 UNK         0.3013 
    105 H105       27.0342   28.0044    3.9479 H         1 UNK         0.3121 
    106 H106       29.6420   29.0184    4.4994 H         1 UNK         0.0774 
    107 H107       27.4173   29.6611    6.5288 H         1 UNK         0.0815 
    108 H108       28.9651   30.4910    6.4172 H         1 UNK         0.0815 
    109 H109       28.9137   28.7985    6.8844 H         1 UNK         0.0815 
    110 H110       29.7728   30.6062    2.9897 H         1 UNK         0.2987 
    111 H111       27.5808   32.4474    2.4640 H         1 UNK         0.0949 
    112 H112       28.3440   30.3563    0.3536 H         1 UNK         0.0806 
    113 H113       26.7565   30.6749    1.0240 H         1 UNK         0.0806 
    114 H114       27.4980   31.8601   -0.0245 H         1 UNK         0.0806 
    115 H115       29.7368   31.9718   -0.1607 H         1 UNK         0.3010 
    116 H116       31.2145   34.4253    0.4717 H         1 UNK         0.0829 
    117 H117       30.5319   33.9847   -1.8690 H         1 UNK         0.0813 
    118 H118       32.2838   34.0071   -1.7454 H         1 UNK         0.0813 
    119 H119       31.4371   32.4732   -1.8804 H         1 UNK         0.0813 
    120 H120       31.7291   30.9214    0.4653 H         1 UNK         0.3038 
    121 H121       34.3594   31.2399    1.8534 H         1 UNK         0.0769 
    122 H122       33.1302   28.7827    0.4740 H         1 UNK         0.0811 
    123 H123       34.7043   28.8526    1.2483 H         1 UNK         0.0811 
    124 H124       34.4087   29.7837   -0.2111 H         1 UNK         0.0811 
    125 H125       34.6283   29.8364    3.7193 H         1 UNK         0.3204 
    126 H126       32.4408   28.4491    4.9237 H         1 UNK         0.0748 
    127 H127       32.4324   29.8038    7.0465 H         1 UNK         0.0771 
    128 H128       33.4989   30.9931    6.3075 H         1 UNK         0.0771 
    129 H129       31.8593   30.7711    5.7006 H         1 UNK         0.0771 
    130 H130       33.2586   27.3127    6.8574 H         1 UNK         0.2980 
    131 H131       36.0404   26.4784    6.4133 H         1 UNK         0.0545 
    132 H132       34.7490   28.8134    8.5035 H         1 UNK         0.3459 
    133 H133       35.9365   28.6375    9.7711 H         1 UNK         0.3459 
    134 H134       33.8009   25.1713    8.0351 H         1 UNK         0.0616 
    135 H135       35.3977   24.5070    7.8238 H         1 UNK         0.0616 
    136 H136       31.9225   24.6032    6.6047 H         1 UNK         0.0634 
    137 H137       32.3539   25.8940    5.5124 H         1 UNK         0.0634 
@<TRIPOS>BOND
     1    1    2 1    
     2    1   72 1    
     3    1   73 1    
     4    1   74 1    
     5    2    3 2    
     6    2    4 am   BACKBONE|DICT|INTERRES
     7    4    5 1    
     8    4   75 1    
     9    5    6 1    
    10    5   35 1    
    11    5   76 1    
    12    6    7 1    
    13    6   77 1    
    14    6   78 1    
    15    7    8 1    
    16    8    9 1    
    17    8   79 1    
    18    8   80 1    
    19    9   10 ar   
    20    9   14 ar   
    21   10   11 ar   
    22   10   81 1    
    23   11   12 ar   
    24   11   71 1    
    25   12   13 ar   
    26   12   82 1    
    27   13   14 ar   
    28   13   15 1    
    29   14   83 1    
    30   15   16 1    
    31   15   84 1    
    32   15   85 1    
    33   16   17 1    
    34   17   18 1    
    35   17   86 1    
    36   17   87 1    
    37   18   19 1    
    38   18   37 1    
    39   18   88 1    
    40   19   20 am   BACKBONE|DICT|INTERRES
    41   19   89 1    
    42   20   21 2    
    43   20   22 1    
    44   22   23 1    
    45   22   24 1    
    46   22   90 1    
    47   23   91 1    
    48   23   92 1    
    49   23   93 1    
    50   24   25 am   BACKBONE|DICT|INTERRES
    51   24   94 1    
    52   25   26 2    
    53   25   27 1    
    54   27   28 1    
    55   27   29 1    
    56   27   95 1    
    57   28   96 1    
    58   28   97 1    
    59   28   98 1    
    60   29   30 am   BACKBONE|DICT|INTERRES
    61   29   99 1    
    62   30   31 2    
    63   30   32 1    
    64   32   33 1    
    65   32   34 1    
    66   32  100 1    
    67   33  101 1    
    68   33  102 1    
    69   33  103 1    
    70   34   35 am   BACKBONE|DICT|INTERRES
    71   34  104 1    
    72   35   36 2    
    73   37   38 2    
    74   37   39 am   BACKBONE|DICT|INTERRES
    75   39   40 1    
    76   39  105 1    
    77   40   41 1    
    78   40   42 1    
    79   40  106 1    
    80   41  107 1    
    81   41  108 1    
    82   41  109 1    
    83   42   43 2    
    84   42   44 am   BACKBONE|DICT|INTERRES
    85   44   45 1    
    86   44  110 1    
    87   45   46 1    
    88   45   47 1    
    89   45  111 1    
    90   46  112 1    
    91   46  113 1    
    92   46  114 1    
    93   47   48 2    
    94   47   49 am   BACKBONE|DICT|INTERRES
    95   49   50 1    
    96   49  115 1    
    97   50   51 1    
    98   50   52 1    
    99   50  116 1    
   100   51  117 1    
   101   51  118 1    
   102   51  119 1    
   103   52   53 2    
   104   52   54 am   BACKBONE|DICT|INTERRES
   105   54   55 1    
   106   54  120 1    
   107   55   56 1    
   108   55   57 1    
   109   55  121 1    
   110   56  122 1    
   111   56  123 1    
   112   56  124 1    
   113   57   58 2    
   114   57   59 am   BACKBONE|DICT|INTERRES
   115   59   60 1    
   116   59  125 1    
   117   60   61 1    
   118   60   62 1    
   119   60  126 1    
   120   61  127 1    
   121   61  128 1    
   122   61  129 1    
   123   62   63 2    
   124   62   64 am   BACKBONE|DICT|INTERRES
   125   64   65 1    
   126   64  130 1    
   127   65   66 1    
   128   65   69 1    
   129   65  131 1    
   130   66   67 am   BACKBONE|DICT|INTERRES
   131   66   68 2    
   132   67  132 1    
   133   67  133 1    
   134   69   70 1    
   135   69  134 1    
   136   69  135 1    
   137   70   71 1    
   138   71  136 1    
   139   71  137 1    
@<TRIPOS>SUBSTRUCTURE
     1 UNK         1 GROUP             0       ****    0 ROOT    
