@<TRIPOS>MOLECULE
3R136
137   139    1
SMALL
USER_CHARGES


@<TRIPOS>ATOM
      1 CA         24.3246   28.0343    1.3462 C.3       0 UNK        -0.1979 
      2 C          24.8469   26.7662    2.0037 C.2       0 UNK         0.4864 
      3 O          24.0624   25.8784    2.3425 O.2       0 UNK        -0.5359 
      4 N          26.1706   26.6602    2.1640 N.am      1 UNK        -0.4318 
      5 CA         26.8696   25.4842    2.6805 C.3       1 UNK         0.0824 
      6 C6         28.3318   25.8297    3.0309 C.3       12 UNK        -0.0944 
      7 S7         29.1047   24.6422    4.1748 S.3       12 UNK        -0.2672 
      8 C8         30.4709   25.6462    4.8435 C.3       12 UNK         0.0333 
      9 C9         31.6235   25.7845    3.8560 C.ar      12 UNK        -0.0807 
     10 C10        32.7781   25.0082    4.0067 C.ar      12 UNK        -0.0894 
     11 C11        33.8556   25.1499    3.1248 C.ar      12 UNK        -0.0804 
     12 C12        33.7546   26.0598    2.0657 C.ar      12 UNK        -0.0824 
     13 C13        32.6121   26.8467    1.9079 C.ar      12 UNK        -0.0762 
     14 C14        31.5563   26.7158    2.8143 C.ar      12 UNK        -0.0782 
     15 C15        32.5346   27.8630    0.7780 C.3       12 UNK         0.0230 
     16 S16        32.1340   27.1113   -0.8341 S.3       12 UNK        -0.2608 
     17 C17        30.4833   26.3793   -0.5612 C.3       12 UNK        -0.0989 
     18 CA         29.3223   27.2172   -1.1564 C.3       5 UNK         0.0716 
     19 N          28.2016   26.3521   -1.5384 N.am      5 UNK        -0.4135 
     20 C          27.4261   26.5579   -2.6100 C.2       4 UNK         0.5031 
     21 O          27.5134   27.5485   -3.3375 O.2       4 UNK        -0.5229 
     22 CA         26.4138   25.4625   -2.9683 C.3       4 UNK         0.0329 
     23 CB         27.1251   24.1576   -3.3711 C.3       4 UNK        -0.2001 
     24 N          25.4697   25.1874   -1.8845 N.am      4 UNK        -0.4303 
     25 C          24.1513   25.0066   -2.0651 C.2       3 UNK         0.5044 
     26 O          23.5862   25.1750   -3.1477 O.2       3 UNK        -0.5152 
     27 CA         23.3147   24.5528   -0.8469 C.3       3 UNK         0.0319 
     28 CB         22.0351   23.7886   -1.2498 C.3       3 UNK        -0.2001 
     29 N          24.0826   23.7911    0.1446 N.am      3 UNK        -0.4354 
     30 C          24.7516   22.6390   -0.0428 C.2       2 UNK         0.4964 
     31 O          24.6979   21.9769   -1.0801 O.2       2 UNK        -0.5047 
     32 CA         25.6639   22.1683    1.1143 C.3       2 UNK         0.0288 
     33 CB         26.8814   21.3616    0.6127 C.3       2 UNK        -0.2113 
     34 N          26.0997   23.2636    1.9949 N.am      2 UNK        -0.4145 
     35 C          26.7720   24.3657    1.6278 C.2       1 UNK         0.5006 
     36 O          27.2109   24.5671    0.4894 O.2       1 UNK        -0.5103 
     37 C          28.8356   28.3222   -0.1981 C.2       5 UNK         0.5055 
     38 O          27.8854   28.1078    0.5580 O.2       5 UNK        -0.5220 
     39 N          29.4928   29.4878   -0.2357 N.am      6 UNK        -0.4450 
     40 CA         29.1910   30.6411    0.6144 C.3       6 UNK         0.0367 
     41 CB         29.9442   31.8732    0.0831 C.3       6 UNK        -0.1929 
     42 C          29.5535   30.3680    2.0836 C.2       6 UNK         0.5070 
     43 O          30.7338   30.3877    2.4313 O.2       6 UNK        -0.5237 
     44 N          28.5410   30.1424    2.9309 N.am      7 UNK        -0.4739 
     45 CA         28.6902   29.8283    4.3601 C.3       7 UNK         0.0276 
     46 CB         27.3117   29.4822    4.9456 C.3       7 UNK        -0.1927 
     47 C          29.3821   30.9230    5.1986 C.2       7 UNK         0.5013 
     48 O          29.8848   30.6244    6.2812 O.2       7 UNK        -0.5193 
     49 N          29.4269   32.1570    4.6785 N.am      8 UNK        -0.4253 
     50 CA         30.1961   33.2739    5.2316 C.3       8 UNK         0.0242 
     51 CB         29.7191   34.5800    4.5749 C.3       8 UNK        -0.2000 
     52 C          31.7222   33.1173    5.0653 C.2       8 UNK         0.4948 
     53 O          32.4660   33.7846    5.7851 O.2       8 UNK        -0.5275 
     54 N          32.1663   32.2596    4.1356 N.am      9 UNK        -0.4246 
     55 CA         33.5695   31.9820    3.8309 C.3       9 UNK         0.0261 
     56 CB         33.8854   32.5096    2.4182 C.3       9 UNK        -0.1959 
     57 C          33.8278   30.4739    3.9715 C.2       9 UNK         0.5033 
     58 O          34.3615   29.8474    3.0533 O.2       9 UNK        -0.5390 
     59 N          33.4225   29.9099    5.1181 N.am      10 UNK        -0.4215 
     60 CA         33.4376   28.4769    5.4223 C.3       10 UNK         0.0240 
     61 CB         32.4642   28.1956    6.5822 C.3       10 UNK        -0.1982 
     62 C          34.8404   27.8892    5.6681 C.2       10 UNK         0.4970 
     63 O          35.1138   27.3958    6.7639 O.2       10 UNK        -0.4916 
     64 N          35.6997   27.9537    4.6437 N.am      11 UNK        -0.4279 
     65 CA         37.0723   27.4187    4.6154 C.3       11 UNK         0.1003 
     66 C          38.0505   28.0655    5.6479 C.2       11 UNK         0.5709 
     67 N          37.7585   29.2442    6.1860 N.am      11 UNK        -0.7358 
     68 O          39.1122   27.5188    5.9387 O.2       11 UNK        -0.4999 
     69 C69        37.0962   25.8586    4.6216 C.3       12 UNK        -0.0954 
     70 S70        36.6712   25.1524    2.9930 S.3       12 UNK        -0.2268 
     71 C71        35.0965   24.2768    3.2952 C.3       12 UNK         0.0203 
     72 H72        25.1329   28.7175    1.0850 H         1 UNK         0.0888 
     73 H73        23.7811   27.7901    0.4344 H         1 UNK         0.0888 
     74 H74        23.6452   28.5538    2.0212 H         1 UNK         0.0888 
     75 H75        26.7747   27.3535    1.7224 H         1 UNK         0.3017 
     76 H76        26.3573   25.1744    3.5942 H         1 UNK         0.0873 
     77 H77        28.3676   26.8127    3.5015 H         1 UNK         0.0745 
     78 H78        28.9350   25.9052    2.1298 H         1 UNK         0.0745 
     79 H79        30.8227   25.1780    5.7640 H         1 UNK         0.0705 
     80 H80        30.1028   26.6312    5.1327 H         1 UNK         0.0705 
     81 H81        32.8390   24.2933    4.8159 H         1 UNK         0.1334 
     82 H82        34.5690   26.1640    1.3621 H         1 UNK         0.1417 
     83 H83        30.6868   27.3494    2.7106 H         1 UNK         0.1562 
     84 H84        33.4906   28.3827    0.6969 H         1 UNK         0.0748 
     85 H85        31.8017   28.6316    1.0059 H         1 UNK         0.0748 
     86 H86        30.3267   26.1495    0.4885 H         1 UNK         0.0940 
     87 H87        30.5170   25.4055   -1.0532 H         1 UNK         0.0940 
     88 H88        29.6935   27.7039   -2.0613 H         1 UNK         0.0703 
     89 H89        27.9972   25.5774   -0.9126 H         1 UNK         0.3081 
     90 H90        25.8757   25.8264   -3.8463 H         1 UNK         0.0719 
     91 H91        27.8642   24.3370   -4.1531 H         1 UNK         0.0809 
     92 H92        27.6424   23.6995   -2.5270 H         1 UNK         0.0809 
     93 H93        26.4145   23.4270   -3.7580 H         1 UNK         0.0809 
     94 H94        25.8706   25.0308   -0.9656 H         1 UNK         0.2990 
     95 H95        23.0008   25.4683   -0.3444 H         1 UNK         0.0690 
     96 H96        21.4599   23.4888   -0.3739 H         1 UNK         0.0788 
     97 H97        22.2637   22.8910   -1.8251 H         1 UNK         0.0788 
     98 H98        21.3835   24.4107   -1.8647 H         1 UNK         0.0788 
     99 H99        24.1775   24.2537    1.0434 H         1 UNK         0.2993 
    100 H100       25.0530   21.5032    1.7266 H         1 UNK         0.0949 
    101 H101       27.4969   21.9428   -0.0749 H         1 UNK         0.0767 
    102 H102       27.5141   21.0423    1.4408 H         1 UNK         0.0767 
    103 H103       26.5651   20.4620    0.0834 H         1 UNK         0.0767 
    104 H104       25.7598   23.2121    2.9459 H         1 UNK         0.3013 
    105 H105       30.2827   29.5802   -0.8582 H         1 UNK         0.3121 
    106 H106       28.1204   30.8467    0.5474 H         1 UNK         0.0774 
    107 H107       29.7432   32.7501    0.7000 H         1 UNK         0.0815 
    108 H108       31.0244   31.7195    0.0806 H         1 UNK         0.0815 
    109 H109       29.6381   32.1174   -0.9342 H         1 UNK         0.0815 
    110 H110       27.6002   30.1335    2.5629 H         1 UNK         0.2987 
    111 H111       29.3237   28.9422    4.4319 H         1 UNK         0.0949 
    112 H112       26.8563   28.6391    4.4259 H         1 UNK         0.0806 
    113 H113       27.3929   29.2044    5.9975 H         1 UNK         0.0806 
    114 H114       26.6243   30.3267    4.8840 H         1 UNK         0.0806 
    115 H115       28.9730   32.3098    3.7902 H         1 UNK         0.3010 
    116 H116       29.9896   33.3323    6.3025 H         1 UNK         0.0829 
    117 H117       29.8934   34.5783    3.4981 H         1 UNK         0.0813 
    118 H118       30.2474   35.4403    4.9885 H         1 UNK         0.0813 
    119 H119       28.6548   34.7448    4.7443 H         1 UNK         0.0813 
    120 H120       31.4983   31.6997    3.6093 H         1 UNK         0.3038 
    121 H121       34.2301   32.4842    4.5405 H         1 UNK         0.0769 
    122 H122       33.7040   33.5819    2.3463 H         1 UNK         0.0811 
    123 H123       33.2755   32.0145    1.6611 H         1 UNK         0.0811 
    124 H124       34.9314   32.3391    2.1604 H         1 UNK         0.0811 
    125 H125       33.0047   30.5090    5.8159 H         1 UNK         0.3204 
    126 H126       33.0554   27.9671    4.5437 H         1 UNK         0.0748 
    127 H127       32.7471   28.7334    7.4877 H         1 UNK         0.0771 
    128 H128       31.4466   28.4839    6.3223 H         1 UNK         0.0771 
    129 H129       32.4406   27.1326    6.8256 H         1 UNK         0.0771 
    130 H130       35.3869   28.4420    3.8080 H         1 UNK         0.2980 
    131 H131       37.4802   27.7443    3.6580 H         1 UNK         0.0545 
    132 H132       38.4019   29.6605    6.8404 H         1 UNK         0.3459 
    133 H133       36.8983   29.7122    5.9530 H         1 UNK         0.3459 
    134 H134       36.4437   25.4546    5.3963 H         1 UNK         0.0616 
    135 H135       38.0923   25.4779    4.8510 H         1 UNK         0.0616 
    136 H136       35.1223   23.8211    4.2861 H         1 UNK         0.0634 
    137 H137       35.0255   23.4535    2.5836 H         1 UNK         0.0634 
@<TRIPOS>BOND
     1    1    2 1    
     2    1   72 1    
     3    1   73 1    
     4    1   74 1    
     5    2    3 2    
     6    2    4 am   BACKBONE|DICT|INTERRES
     7    4    5 1    
     8    4   75 1    
     9    5    6 1    
    10    5   35 1    
    11    5   76 1    
    12    6    7 1    
    13    6   77 1    
    14    6   78 1    
    15    7    8 1    
    16    8    9 1    
    17    8   79 1    
    18    8   80 1    
    19    9   10 ar   
    20    9   14 ar   
    21   10   11 ar   
    22   10   81 1    
    23   11   12 ar   
    24   11   71 1    
    25   12   13 ar   
    26   12   82 1    
    27   13   14 ar   
    28   13   15 1    
    29   14   83 1    
    30   15   16 1    
    31   15   84 1    
    32   15   85 1    
    33   16   17 1    
    34   17   18 1    
    35   17   86 1    
    36   17   87 1    
    37   18   19 1    
    38   18   37 1    
    39   18   88 1    
    40   19   20 am   BACKBONE|DICT|INTERRES
    41   19   89 1    
    42   20   21 2    
    43   20   22 1    
    44   22   23 1    
    45   22   24 1    
    46   22   90 1    
    47   23   91 1    
    48   23   92 1    
    49   23   93 1    
    50   24   25 am   BACKBONE|DICT|INTERRES
    51   24   94 1    
    52   25   26 2    
    53   25   27 1    
    54   27   28 1    
    55   27   29 1    
    56   27   95 1    
    57   28   96 1    
    58   28   97 1    
    59   28   98 1    
    60   29   30 am   BACKBONE|DICT|INTERRES
    61   29   99 1    
    62   30   31 2    
    63   30   32 1    
    64   32   33 1    
    65   32   34 1    
    66   32  100 1    
    67   33  101 1    
    68   33  102 1    
    69   33  103 1    
    70   34   35 am   BACKBONE|DICT|INTERRES
    71   34  104 1    
    72   35   36 2    
    73   37   38 2    
    74   37   39 am   BACKBONE|DICT|INTERRES
    75   39   40 1    
    76   39  105 1    
    77   40   41 1    
    78   40   42 1    
    79   40  106 1    
    80   41  107 1    
    81   41  108 1    
    82   41  109 1    
    83   42   43 2    
    84   42   44 am   BACKBONE|DICT|INTERRES
    85   44   45 1    
    86   44  110 1    
    87   45   46 1    
    88   45   47 1    
    89   45  111 1    
    90   46  112 1    
    91   46  113 1    
    92   46  114 1    
    93   47   48 2    
    94   47   49 am   BACKBONE|DICT|INTERRES
    95   49   50 1    
    96   49  115 1    
    97   50   51 1    
    98   50   52 1    
    99   50  116 1    
   100   51  117 1    
   101   51  118 1    
   102   51  119 1    
   103   52   53 2    
   104   52   54 am   BACKBONE|DICT|INTERRES
   105   54   55 1    
   106   54  120 1    
   107   55   56 1    
   108   55   57 1    
   109   55  121 1    
   110   56  122 1    
   111   56  123 1    
   112   56  124 1    
   113   57   58 2    
   114   57   59 am   BACKBONE|DICT|INTERRES
   115   59   60 1    
   116   59  125 1    
   117   60   61 1    
   118   60   62 1    
   119   60  126 1    
   120   61  127 1    
   121   61  128 1    
   122   61  129 1    
   123   62   63 2    
   124   62   64 am   BACKBONE|DICT|INTERRES
   125   64   65 1    
   126   64  130 1    
   127   65   66 1    
   128   65   69 1    
   129   65  131 1    
   130   66   67 am   BACKBONE|DICT|INTERRES
   131   66   68 2    
   132   67  132 1    
   133   67  133 1    
   134   69   70 1    
   135   69  134 1    
   136   69  135 1    
   137   70   71 1    
   138   71  136 1    
   139   71  137 1    
@<TRIPOS>SUBSTRUCTURE
     1 UNK         1 GROUP             0       ****    0 ROOT    
