@<TRIPOS>MOLECULE
3R136
137   139    1
SMALL
USER_CHARGES


@<TRIPOS>ATOM
      1 CA         27.4673   21.5052   -2.4149 C.3       0 UNK        -0.1979 
      2 C          28.0081   22.2757   -1.2201 C.2       0 UNK         0.4864 
      3 O          27.7621   23.4767   -1.1097 O.2       0 UNK        -0.5359 
      4 N          28.7498   21.5971   -0.3358 N.am      1 UNK        -0.4318 
      5 CA         29.3170   22.1588    0.8930 C.3       1 UNK         0.0824 
      6 C6         30.3447   21.1984    1.5461 C.3       12 UNK        -0.0944 
      7 S7         31.7678   20.8481    0.4589 S.3       12 UNK        -0.2672 
      8 C8         33.0397   21.9527    1.1515 C.3       12 UNK         0.0333 
      9 C9         32.6431   23.4153    1.0173 C.ar      12 UNK        -0.0807 
     10 C10        32.2107   24.1360    2.1341 C.ar      12 UNK        -0.0894 
     11 C11        31.8202   25.4718    2.0083 C.ar      12 UNK        -0.0804 
     12 C12        31.8730   26.0852    0.7518 C.ar      12 UNK        -0.0824 
     13 C13        32.3043   25.3766   -0.3757 C.ar      12 UNK        -0.0762 
     14 C14        32.6932   24.0418   -0.2308 C.ar      12 UNK        -0.0782 
     15 C15        32.3801   26.0299   -1.7549 C.3       12 UNK         0.0230 
     16 S16        31.0268   27.1982   -2.1239 S.3       12 UNK        -0.2608 
     17 C17        29.5522   26.1289   -1.9952 C.3       12 UNK        -0.0989 
     18 CA         28.3282   26.9144   -1.4678 C.3       5 UNK         0.0716 
     19 N          27.0808   26.1781   -1.6563 N.am      5 UNK        -0.4135 
     20 C          25.9056   26.7587   -1.9337 C.2       4 UNK         0.5031 
     21 O          25.7819   27.9520   -2.2146 O.2       4 UNK        -0.5229 
     22 CA         24.6484   25.8807   -1.8432 C.3       4 UNK         0.0329 
     23 CB         24.7690   24.5713   -2.6419 C.3       4 UNK        -0.2001 
     24 N          24.3362   25.5918   -0.4442 N.am      4 UNK        -0.4303 
     25 C          23.7426   26.4414    0.4040 C.2       3 UNK         0.5044 
     26 O          23.2986   27.5410    0.0724 O.2       3 UNK        -0.5152 
     27 CA         23.6227   26.0058    1.8776 C.3       3 UNK         0.0319 
     28 CB         22.5254   24.9389    2.0645 C.3       3 UNK        -0.2001 
     29 N          24.8953   25.5994    2.4939 N.am      3 UNK        -0.4354 
     30 C          25.6664   24.5436    2.1976 C.2       2 UNK         0.4964 
     31 O          25.3682   23.6972    1.3520 O.2       2 UNK        -0.5047 
     32 CA         26.9880   24.4474    2.9802 C.3       2 UNK         0.0288 
     33 CB         26.7943   23.7980    4.3658 C.3       2 UNK        -0.2113 
     34 N          28.0463   23.8020    2.1944 N.am      2 UNK        -0.4145 
     35 C          28.1915   22.5039    1.8875 C.2       1 UNK         0.5006 
     36 O          27.5019   21.5878    2.3439 O.2       1 UNK        -0.5103 
     37 C          28.4372   27.2384    0.0310 C.2       5 UNK         0.5055 
     38 O          28.4971   26.3181    0.8484 O.2       5 UNK        -0.5220 
     39 N          28.4389   28.5317    0.3650 N.am      6 UNK        -0.4450 
     40 CA         28.4668   29.0384    1.7329 C.3       6 UNK         0.0367 
     41 CB         27.0272   29.2071    2.2564 C.3       6 UNK        -0.1929 
     42 C          29.2794   30.3365    1.7547 C.2       6 UNK         0.5070 
     43 O          28.7289   31.4179    1.9696 O.2       6 UNK        -0.5237 
     44 N          30.5868   30.2082    1.5004 N.am      7 UNK        -0.4739 
     45 CA         31.5730   31.2881    1.5620 C.3       7 UNK         0.0276 
     46 CB         32.8334   30.8487    0.7939 C.3       7 UNK        -0.1927 
     47 C          31.8801   31.6439    3.0272 C.2       7 UNK         0.5013 
     48 O          32.9181   31.2379    3.5519 O.2       7 UNK        -0.5193 
     49 N          30.9435   32.3534    3.6726 N.am      8 UNK        -0.4253 
     50 CA         30.8663   32.6331    5.1143 C.3       8 UNK         0.0242 
     51 CB         29.6961   33.5945    5.3751 C.3       8 UNK        -0.2000 
     52 C          32.1472   33.1586    5.7880 C.2       8 UNK         0.4948 
     53 O          32.3471   32.8871    6.9718 O.2       8 UNK        -0.5275 
     54 N          33.0093   33.8519    5.0310 N.am      9 UNK        -0.4246 
     55 CA         34.3423   34.2856    5.4635 C.3       9 UNK         0.0261 
     56 CB         34.9721   35.1558    4.3639 C.3       9 UNK        -0.1959 
     57 C          35.2868   33.1238    5.8371 C.2       9 UNK         0.5033 
     58 O          36.1664   33.3188    6.6776 O.2       9 UNK        -0.5390 
     59 N          35.0852   31.9501    5.2232 N.am      10 UNK        -0.4215 
     60 CA         35.7875   30.7040    5.5289 C.3       10 UNK         0.0240 
     61 CB         36.3649   30.1174    4.2294 C.3       10 UNK        -0.1982 
     62 C          34.8473   29.6905    6.2001 C.2       10 UNK         0.4970 
     63 O          35.2633   29.0222    7.1471 O.2       10 UNK        -0.4916 
     64 N          33.6119   29.5817    5.6944 N.am      11 UNK        -0.4279 
     65 CA         32.5979   28.6128    6.1386 C.3       11 UNK         0.1003 
     66 C          31.9477   28.9279    7.5156 C.2       11 UNK         0.5709 
     67 N          32.0363   30.1428    8.0428 N.am      11 UNK        -0.7358 
     68 O          31.3550   28.0413    8.1256 O.2       11 UNK        -0.4999 
     69 C69        31.5149   28.3855    5.0501 C.3       12 UNK        -0.0954 
     70 S70        32.2314   27.7886    3.4816 S.3       12 UNK        -0.2268 
     71 C71        31.3173   26.2369    3.2257 C.3       12 UNK         0.0203 
     72 H72        26.3801   21.4532   -2.3652 H         1 UNK         0.0888 
     73 H73        27.8558   20.4877   -2.4535 H         1 UNK         0.0888 
     74 H74        27.7433   22.0086   -3.3410 H         1 UNK         0.0888 
     75 H75        28.9158   20.6113   -0.4762 H         1 UNK         0.3017 
     76 H76        29.8335   23.0825    0.6226 H         1 UNK         0.0873 
     77 H77        29.8730   20.2460    1.7960 H         1 UNK         0.0745 
     78 H78        30.7084   21.6058    2.4911 H         1 UNK         0.0745 
     79 H79        33.2198   21.6901    2.1952 H         1 UNK         0.0705 
     80 H80        33.9810   21.7823    0.6269 H         1 UNK         0.0705 
     81 H81        32.1671   23.6521    3.1003 H         1 UNK         0.1334 
     82 H82        31.5718   27.1178    0.6542 H         1 UNK         0.1417 
     83 H83        33.0272   23.4798   -1.0927 H         1 UNK         0.1562 
     84 H84        32.3900   25.2680   -2.5361 H         1 UNK         0.0748 
     85 H85        33.3285   26.5627   -1.8321 H         1 UNK         0.0748 
     86 H86        29.7584   25.2590   -1.3687 H         1 UNK         0.0940 
     87 H87        29.3418   25.7362   -2.9911 H         1 UNK         0.0940 
     88 H88        28.2762   27.8495   -2.0302 H         1 UNK         0.0703 
     89 H89        27.1203   25.1914   -1.4016 H         1 UNK         0.3081 
     90 H90        23.8225   26.4493   -2.2766 H         1 UNK         0.0719 
     91 H91        25.4596   23.8689   -2.1798 H         1 UNK         0.0809 
     92 H92        23.8025   24.0734   -2.7205 H         1 UNK         0.0809 
     93 H93        25.1187   24.7601   -3.6578 H         1 UNK         0.0809 
     94 H94        24.7071   24.7305   -0.0480 H         1 UNK         0.2990 
     95 H95        23.3048   26.8890    2.4344 H         1 UNK         0.0690 
     96 H96        22.3924   24.6884    3.1169 H         1 UNK         0.0788 
     97 H97        22.7492   24.0170    1.5272 H         1 UNK         0.0788 
     98 H98        21.5657   25.3018    1.6941 H         1 UNK         0.0788 
     99 H99        25.2351   26.2351    3.2023 H         1 UNK         0.2993 
    100 H100       27.3442   25.4662    3.1422 H         1 UNK         0.0949 
    101 H101       26.1465   24.4107    4.9937 H         1 UNK         0.0767 
    102 H102       26.3305   22.8137    4.2962 H         1 UNK         0.0767 
    103 H103       27.7438   23.6879    4.8897 H         1 UNK         0.0767 
    104 H104       28.6037   24.4719    1.6713 H         1 UNK         0.3013 
    105 H105       28.4133   29.2325   -0.3640 H         1 UNK         0.3121 
    106 H106       28.9846   28.3316    2.3841 H         1 UNK         0.0774 
    107 H107       26.4979   28.2547    2.2712 H         1 UNK         0.0815 
    108 H108       26.4520   29.8980    1.6389 H         1 UNK         0.0815 
    109 H109       27.0255   29.5973    3.2749 H         1 UNK         0.0815 
    110 H110       30.9572   29.2798    1.3584 H         1 UNK         0.2987 
    111 H111       31.1677   32.1764    1.0721 H         1 UNK         0.0949 
    112 H112       33.2740   29.9454    1.2189 H         1 UNK         0.0806 
    113 H113       32.6101   30.6499   -0.2544 H         1 UNK         0.0806 
    114 H114       33.5975   31.6267    0.8211 H         1 UNK         0.0806 
    115 H115       30.1045   32.5623    3.1426 H         1 UNK         0.3010 
    116 H116       30.6318   31.6834    5.5988 H         1 UNK         0.0829 
    117 H117       28.7512   33.1733    5.0309 H         1 UNK         0.0813 
    118 H118       29.5867   33.7998    6.4412 H         1 UNK         0.0813 
    119 H119       29.8414   34.5510    4.8715 H         1 UNK         0.0813 
    120 H120       32.7620   34.0257    4.0677 H         1 UNK         0.3038 
    121 H121       34.2142   34.9004    6.3570 H         1 UNK         0.0769 
    122 H122       35.1022   34.6004    3.4341 H         1 UNK         0.0811 
    123 H123       35.9559   35.5165    4.6680 H         1 UNK         0.0811 
    124 H124       34.3601   36.0325    4.1506 H         1 UNK         0.0811 
    125 H125       34.3199   31.8780    4.5554 H         1 UNK         0.3204 
    126 H126       36.6167   30.8904    6.2146 H         1 UNK         0.0748 
    127 H127       37.0793   30.8018    3.7715 H         1 UNK         0.0771 
    128 H128       36.8901   29.1810    4.4224 H         1 UNK         0.0771 
    129 H129       35.5840   29.9100    3.4958 H         1 UNK         0.0771 
    130 H130       33.3541   30.1454    4.8879 H         1 UNK         0.2980 
    131 H131       33.1135   27.6601    6.2757 H         1 UNK         0.0545 
    132 H132       31.6122   30.3136    8.9402 H         1 UNK         0.3459 
    133 H133       32.4726   30.9102    7.5474 H         1 UNK         0.3459 
    134 H134       30.7692   27.6671    5.3955 H         1 UNK         0.0616 
    135 H135       30.9730   29.3104    4.8485 H         1 UNK         0.0616 
    136 H136       30.2566   26.4534    3.0973 H         1 UNK         0.0634 
    137 H137       31.4054   25.6267    4.1260 H         1 UNK         0.0634 
@<TRIPOS>BOND
     1    1    2 1    
     2    1   72 1    
     3    1   73 1    
     4    1   74 1    
     5    2    3 2    
     6    2    4 am   BACKBONE|DICT|INTERRES
     7    4    5 1    
     8    4   75 1    
     9    5    6 1    
    10    5   35 1    
    11    5   76 1    
    12    6    7 1    
    13    6   77 1    
    14    6   78 1    
    15    7    8 1    
    16    8    9 1    
    17    8   79 1    
    18    8   80 1    
    19    9   10 ar   
    20    9   14 ar   
    21   10   11 ar   
    22   10   81 1    
    23   11   12 ar   
    24   11   71 1    
    25   12   13 ar   
    26   12   82 1    
    27   13   14 ar   
    28   13   15 1    
    29   14   83 1    
    30   15   16 1    
    31   15   84 1    
    32   15   85 1    
    33   16   17 1    
    34   17   18 1    
    35   17   86 1    
    36   17   87 1    
    37   18   19 1    
    38   18   37 1    
    39   18   88 1    
    40   19   20 am   BACKBONE|DICT|INTERRES
    41   19   89 1    
    42   20   21 2    
    43   20   22 1    
    44   22   23 1    
    45   22   24 1    
    46   22   90 1    
    47   23   91 1    
    48   23   92 1    
    49   23   93 1    
    50   24   25 am   BACKBONE|DICT|INTERRES
    51   24   94 1    
    52   25   26 2    
    53   25   27 1    
    54   27   28 1    
    55   27   29 1    
    56   27   95 1    
    57   28   96 1    
    58   28   97 1    
    59   28   98 1    
    60   29   30 am   BACKBONE|DICT|INTERRES
    61   29   99 1    
    62   30   31 2    
    63   30   32 1    
    64   32   33 1    
    65   32   34 1    
    66   32  100 1    
    67   33  101 1    
    68   33  102 1    
    69   33  103 1    
    70   34   35 am   BACKBONE|DICT|INTERRES
    71   34  104 1    
    72   35   36 2    
    73   37   38 2    
    74   37   39 am   BACKBONE|DICT|INTERRES
    75   39   40 1    
    76   39  105 1    
    77   40   41 1    
    78   40   42 1    
    79   40  106 1    
    80   41  107 1    
    81   41  108 1    
    82   41  109 1    
    83   42   43 2    
    84   42   44 am   BACKBONE|DICT|INTERRES
    85   44   45 1    
    86   44  110 1    
    87   45   46 1    
    88   45   47 1    
    89   45  111 1    
    90   46  112 1    
    91   46  113 1    
    92   46  114 1    
    93   47   48 2    
    94   47   49 am   BACKBONE|DICT|INTERRES
    95   49   50 1    
    96   49  115 1    
    97   50   51 1    
    98   50   52 1    
    99   50  116 1    
   100   51  117 1    
   101   51  118 1    
   102   51  119 1    
   103   52   53 2    
   104   52   54 am   BACKBONE|DICT|INTERRES
   105   54   55 1    
   106   54  120 1    
   107   55   56 1    
   108   55   57 1    
   109   55  121 1    
   110   56  122 1    
   111   56  123 1    
   112   56  124 1    
   113   57   58 2    
   114   57   59 am   BACKBONE|DICT|INTERRES
   115   59   60 1    
   116   59  125 1    
   117   60   61 1    
   118   60   62 1    
   119   60  126 1    
   120   61  127 1    
   121   61  128 1    
   122   61  129 1    
   123   62   63 2    
   124   62   64 am   BACKBONE|DICT|INTERRES
   125   64   65 1    
   126   64  130 1    
   127   65   66 1    
   128   65   69 1    
   129   65  131 1    
   130   66   67 am   BACKBONE|DICT|INTERRES
   131   66   68 2    
   132   67  132 1    
   133   67  133 1    
   134   69   70 1    
   135   69  134 1    
   136   69  135 1    
   137   70   71 1    
   138   71  136 1    
   139   71  137 1    
@<TRIPOS>SUBSTRUCTURE
     1 UNK         1 GROUP             0       ****    0 ROOT    
