@<TRIPOS>MOLECULE
3R136
137   139    1
SMALL
USER_CHARGES


@<TRIPOS>ATOM
      1 CA         34.3996   25.5879    0.2165 C.3       0 UNK        -0.1979 
      2 C          33.0542   26.1816    0.6050 C.2       0 UNK         0.4864 
      3 O          32.9088   26.6852    1.7177 O.2       0 UNK        -0.5359 
      4 N          32.0727   26.1187   -0.2994 N.am      1 UNK        -0.4318 
      5 CA         30.7227   26.6470   -0.1229 C.3       1 UNK         0.0824 
      6 C6         29.8320   25.7537    0.7865 C.3       12 UNK        -0.0944 
      7 S7         29.5140   24.0660    0.1606 S.3       12 UNK        -0.2672 
      8 C8         30.8094   23.0901    0.9940 C.3       12 UNK         0.0333 
      9 C9         30.6377   23.0672    2.5060 C.ar      12 UNK        -0.0807 
     10 C10        31.5684   23.6998    3.3380 C.ar      12 UNK        -0.0894 
     11 C11        31.4145   23.6648    4.7272 C.ar      12 UNK        -0.0804 
     12 C12        30.3067   23.0138    5.2792 C.ar      12 UNK        -0.0824 
     13 C13        29.3629   22.3897    4.4584 C.ar      12 UNK        -0.0762 
     14 C14        29.5488   22.3996    3.0728 C.ar      12 UNK        -0.0782 
     15 C15        28.1550   21.6963    5.0782 C.3       12 UNK         0.0230 
     16 S16        26.5702   22.2060    4.3313 S.3       12 UNK        -0.2608 
     17 C17        26.5756   24.0178    4.5824 C.3       12 UNK        -0.0989 
     18 CA         26.7412   24.8114    3.2519 C.3       5 UNK         0.0716 
     19 N          25.7844   24.4228    2.2069 N.am      5 UNK        -0.4135 
     20 C          24.4473   24.5024    2.2672 C.2       4 UNK         0.5031 
     21 O          23.8275   24.9017    3.2548 O.2       4 UNK        -0.5229 
     22 CA         23.6764   24.0886    0.9922 C.3       4 UNK         0.0329 
     23 CB         22.2658   24.7134    0.9368 C.3       4 UNK        -0.2001 
     24 N          24.3858   24.3534   -0.2722 N.am      4 UNK        -0.4303 
     25 C          24.9090   25.5236   -0.6656 C.2       3 UNK         0.5044 
     26 O          24.9522   26.5318    0.0431 O.2       3 UNK        -0.5152 
     27 CA         25.4781   25.5850   -2.0859 C.3       3 UNK         0.0319 
     28 CB         24.3535   25.8870   -3.0966 C.3       3 UNK        -0.2001 
     29 N          26.4911   26.6350   -2.0987 N.am      3 UNK        -0.4354 
     30 C          27.3353   26.9372   -3.0900 C.2       2 UNK         0.4964 
     31 O          27.3648   26.3647   -4.1798 O.2       2 UNK        -0.5047 
     32 CA         28.3398   28.0579   -2.7880 C.3       2 UNK         0.0288 
     33 CB         27.6361   29.4185   -2.6404 C.3       2 UNK        -0.2113 
     34 N          29.0907   27.7581   -1.5690 N.am      2 UNK        -0.4145 
     35 C          30.1198   26.9041   -1.5135 C.2       1 UNK         0.5006 
     36 O          30.6014   26.3409   -2.5025 O.2       1 UNK        -0.5103 
     37 C          26.8156   26.3421    3.4863 C.2       5 UNK         0.5055 
     38 O          27.4292   26.7620    4.4692 O.2       5 UNK        -0.5220 
     39 N          26.2303   27.1619    2.5968 N.am      6 UNK        -0.4450 
     40 CA         26.3524   28.6205    2.6214 C.3       6 UNK         0.0367 
     41 CB         25.1561   29.2584    1.8972 C.3       6 UNK        -0.1929 
     42 C          27.6712   29.0224    1.9507 C.2       6 UNK         0.5070 
     43 O          27.9434   28.5759    0.8334 O.2       6 UNK        -0.5237 
     44 N          28.4689   29.8442    2.6349 N.am      7 UNK        -0.4739 
     45 CA         29.8124   30.2308    2.2160 C.3       7 UNK         0.0276 
     46 CB         30.8164   29.2014    2.7670 C.3       7 UNK        -0.1927 
     47 C          30.1412   31.6306    2.7461 C.2       7 UNK         0.5013 
     48 O          29.4724   32.1188    3.6617 O.2       7 UNK        -0.5193 
     49 N          31.1952   32.2247    2.1824 N.am      8 UNK        -0.4253 
     50 CA         31.8490   33.4381    2.6575 C.3       8 UNK         0.0242 
     51 CB         31.4026   34.6413    1.8106 C.3       8 UNK        -0.2000 
     52 C          33.3561   33.1972    2.5313 C.2       8 UNK         0.4948 
     53 O          33.7768   32.5269    1.5825 O.2       8 UNK        -0.5275 
     54 N          34.1349   33.7169    3.4907 N.am      9 UNK        -0.4246 
     55 CA         35.5834   33.5326    3.6893 C.3       9 UNK         0.0261 
     56 CB         36.4038   34.0771    2.5024 C.3       9 UNK        -0.1959 
     57 C          35.9784   32.0831    4.0364 C.2       9 UNK         0.5033 
     58 O          36.6116   31.8585    5.0693 O.2       9 UNK        -0.5390 
     59 N          35.5729   31.1284    3.1922 N.am      10 UNK        -0.4215 
     60 CA         35.6138   29.6915    3.4560 C.3       10 UNK         0.0240 
     61 CB         35.4425   28.9381    2.1277 C.3       10 UNK        -0.1982 
     62 C          34.5106   29.2921    4.4515 C.2       10 UNK         0.4970 
     63 O          33.4908   29.9795    4.5439 O.2       10 UNK        -0.4916 
     64 N          34.7390   28.1861    5.1707 N.am      11 UNK        -0.4279 
     65 CA         33.8458   27.6425    6.2098 C.3       11 UNK         0.1003 
     66 C          33.6817   28.5559    7.4693 C.2       11 UNK         0.5709 
     67 N          34.5714   29.5130    7.7088 N.am      11 UNK        -0.7358 
     68 O          32.7599   28.3847    8.2631 O.2       11 UNK        -0.4999 
     69 C69        32.4991   27.1241    5.6163 C.3       12 UNK        -0.0954 
     70 S70        31.8124   25.7192    6.5568 S.3       12 UNK        -0.2268 
     71 C71        32.4612   24.2856    5.6421 C.3       12 UNK         0.0203 
     72 H72        35.1541   26.3721    0.1637 H         1 UNK         0.0888 
     73 H73        34.7160   24.8587    0.9618 H         1 UNK         0.0888 
     74 H74        34.3596   25.0878   -0.7511 H         1 UNK         0.0888 
     75 H75        32.2319   25.7307   -1.2215 H         1 UNK         0.3017 
     76 H76        30.8178   27.6279    0.3444 H         1 UNK         0.0873 
     77 H77        30.2659   25.7001    1.7849 H         1 UNK         0.0745 
     78 H78        28.8592   26.2209    0.9324 H         1 UNK         0.0745 
     79 H79        30.7711   22.0671    0.6174 H         1 UNK         0.0705 
     80 H80        31.7908   23.4757    0.7179 H         1 UNK         0.0705 
     81 H81        32.4181   24.2106    2.9061 H         1 UNK         0.1334 
     82 H82        30.1850   22.9937    6.3539 H         1 UNK         0.1417 
     83 H83        28.8293   21.9095    2.4307 H         1 UNK         0.1562 
     84 H84        28.1076   21.8844    6.1520 H         1 UNK         0.0748 
     85 H85        28.2692   20.6182    4.9594 H         1 UNK         0.0748 
     86 H86        27.3729   24.2747    5.2824 H         1 UNK         0.0940 
     87 H87        25.6463   24.2955    5.0818 H         1 UNK         0.0940 
     88 H88        27.7201   24.5530    2.8470 H         1 UNK         0.0703 
     89 H89        26.1948   24.0823    1.3498 H         1 UNK         0.3081 
     90 H90        23.5562   23.0061    1.0558 H         1 UNK         0.0719 
     91 H91        22.3103   25.8032    0.9210 H         1 UNK         0.0809 
     92 H92        21.7210   24.3875    0.0508 H         1 UNK         0.0809 
     93 H93        21.6707   24.4235    1.8038 H         1 UNK         0.0809 
     94 H94        24.4223   23.5768   -0.9188 H         1 UNK         0.2990 
     95 H95        25.9545   24.6323   -2.3251 H         1 UNK         0.0690 
     96 H96        24.7208   25.8886   -4.1226 H         1 UNK         0.0788 
     97 H97        23.8931   26.8572   -2.9049 H         1 UNK         0.0788 
     98 H98        23.5647   25.1355   -3.0428 H         1 UNK         0.0788 
     99 H99        26.5342   27.1601   -1.2323 H         1 UNK         0.2993 
    100 H100       29.0341   28.1246   -3.6289 H         1 UNK         0.0949 
    101 H101       27.0521   29.6544   -3.5311 H         1 UNK         0.0767 
    102 H102       26.9562   29.4380   -1.7875 H         1 UNK         0.0767 
    103 H103       28.3599   30.2223   -2.5050 H         1 UNK         0.0767 
    104 H104       28.7213   28.1415   -0.6974 H         1 UNK         0.3013 
    105 H105       25.7711   26.7723    1.7776 H         1 UNK         0.3121 
    106 H106       26.3461   28.9648    3.6579 H         1 UNK         0.0774 
    107 H107       24.2093   28.9178    2.3164 H         1 UNK         0.0815 
    108 H108       25.1825   30.3447    1.9896 H         1 UNK         0.0815 
    109 H109       25.1537   29.0258    0.8318 H         1 UNK         0.0815 
    110 H110       28.1652   30.2460    3.5131 H         1 UNK         0.2987 
    111 H111       29.8655   30.2549    1.1250 H         1 UNK         0.0949 
    112 H112       31.8107   29.3482    2.3435 H         1 UNK         0.0806 
    113 H113       30.9105   29.2834    3.8499 H         1 UNK         0.0806 
    114 H114       30.5182   28.1768    2.5493 H         1 UNK         0.0806 
    115 H115       31.7300   31.7291    1.4795 H         1 UNK         0.3010 
    116 H116       31.6015   33.6129    3.7072 H         1 UNK         0.0829 
    117 H117       30.3260   34.7969    1.8826 H         1 UNK         0.0813 
    118 H118       31.8872   35.5582    2.1484 H         1 UNK         0.0813 
    119 H119       31.6518   34.5077    0.7570 H         1 UNK         0.0813 
    120 H120       33.6762   34.2354    4.2278 H         1 UNK         0.3038 
    121 H121       35.8380   34.1397    4.5598 H         1 UNK         0.0769 
    122 H122       36.2256   33.5178    1.5837 H         1 UNK         0.0811 
    123 H123       37.4726   34.0184    2.7120 H         1 UNK         0.0811 
    124 H124       36.1694   35.1234    2.3070 H         1 UNK         0.0811 
    125 H125       34.9878   31.4356    2.4173 H         1 UNK         0.3204 
    126 H126       36.5872   29.4419    3.8835 H         1 UNK         0.0748 
    127 H127       36.2222   29.2054    1.4143 H         1 UNK         0.0771 
    128 H128       35.4979   27.8596    2.2804 H         1 UNK         0.0771 
    129 H129       34.4769   29.1508    1.6662 H         1 UNK         0.0771 
    130 H130       35.6054   27.6855    5.0359 H         1 UNK         0.2980 
    131 H131       34.3887   26.7733    6.5823 H         1 UNK         0.0545 
    132 H132       34.4634   30.0898    8.5279 H         1 UNK         0.3459 
    133 H133       35.3342   29.6786    7.0719 H         1 UNK         0.3459 
    134 H134       31.7567   27.9225    5.5910 H         1 UNK         0.0616 
    135 H135       32.6264   26.8086    4.5792 H         1 UNK         0.0616 
    136 H136       33.3554   24.5688    5.0845 H         1 UNK         0.0634 
    137 H137       32.7831   23.5342    6.3644 H         1 UNK         0.0634 
@<TRIPOS>BOND
     1    1    2 1    
     2    1   72 1    
     3    1   73 1    
     4    1   74 1    
     5    2    3 2    
     6    2    4 am   BACKBONE|DICT|INTERRES
     7    4    5 1    
     8    4   75 1    
     9    5    6 1    
    10    5   35 1    
    11    5   76 1    
    12    6    7 1    
    13    6   77 1    
    14    6   78 1    
    15    7    8 1    
    16    8    9 1    
    17    8   79 1    
    18    8   80 1    
    19    9   10 ar   
    20    9   14 ar   
    21   10   11 ar   
    22   10   81 1    
    23   11   12 ar   
    24   11   71 1    
    25   12   13 ar   
    26   12   82 1    
    27   13   14 ar   
    28   13   15 1    
    29   14   83 1    
    30   15   16 1    
    31   15   84 1    
    32   15   85 1    
    33   16   17 1    
    34   17   18 1    
    35   17   86 1    
    36   17   87 1    
    37   18   19 1    
    38   18   37 1    
    39   18   88 1    
    40   19   20 am   BACKBONE|DICT|INTERRES
    41   19   89 1    
    42   20   21 2    
    43   20   22 1    
    44   22   23 1    
    45   22   24 1    
    46   22   90 1    
    47   23   91 1    
    48   23   92 1    
    49   23   93 1    
    50   24   25 am   BACKBONE|DICT|INTERRES
    51   24   94 1    
    52   25   26 2    
    53   25   27 1    
    54   27   28 1    
    55   27   29 1    
    56   27   95 1    
    57   28   96 1    
    58   28   97 1    
    59   28   98 1    
    60   29   30 am   BACKBONE|DICT|INTERRES
    61   29   99 1    
    62   30   31 2    
    63   30   32 1    
    64   32   33 1    
    65   32   34 1    
    66   32  100 1    
    67   33  101 1    
    68   33  102 1    
    69   33  103 1    
    70   34   35 am   BACKBONE|DICT|INTERRES
    71   34  104 1    
    72   35   36 2    
    73   37   38 2    
    74   37   39 am   BACKBONE|DICT|INTERRES
    75   39   40 1    
    76   39  105 1    
    77   40   41 1    
    78   40   42 1    
    79   40  106 1    
    80   41  107 1    
    81   41  108 1    
    82   41  109 1    
    83   42   43 2    
    84   42   44 am   BACKBONE|DICT|INTERRES
    85   44   45 1    
    86   44  110 1    
    87   45   46 1    
    88   45   47 1    
    89   45  111 1    
    90   46  112 1    
    91   46  113 1    
    92   46  114 1    
    93   47   48 2    
    94   47   49 am   BACKBONE|DICT|INTERRES
    95   49   50 1    
    96   49  115 1    
    97   50   51 1    
    98   50   52 1    
    99   50  116 1    
   100   51  117 1    
   101   51  118 1    
   102   51  119 1    
   103   52   53 2    
   104   52   54 am   BACKBONE|DICT|INTERRES
   105   54   55 1    
   106   54  120 1    
   107   55   56 1    
   108   55   57 1    
   109   55  121 1    
   110   56  122 1    
   111   56  123 1    
   112   56  124 1    
   113   57   58 2    
   114   57   59 am   BACKBONE|DICT|INTERRES
   115   59   60 1    
   116   59  125 1    
   117   60   61 1    
   118   60   62 1    
   119   60  126 1    
   120   61  127 1    
   121   61  128 1    
   122   61  129 1    
   123   62   63 2    
   124   62   64 am   BACKBONE|DICT|INTERRES
   125   64   65 1    
   126   64  130 1    
   127   65   66 1    
   128   65   69 1    
   129   65  131 1    
   130   66   67 am   BACKBONE|DICT|INTERRES
   131   66   68 2    
   132   67  132 1    
   133   67  133 1    
   134   69   70 1    
   135   69  134 1    
   136   69  135 1    
   137   70   71 1    
   138   71  136 1    
   139   71  137 1    
@<TRIPOS>SUBSTRUCTURE
     1 UNK         1 GROUP             0       ****    0 ROOT    
