@<TRIPOS>MOLECULE
3R136
137   139    1
SMALL
USER_CHARGES


@<TRIPOS>ATOM
      1 CA         32.8952   27.9645    1.5281 C.3       0 UNK        -0.1979 
      2 C          31.5267   27.5935    0.9812 C.2       0 UNK         0.4864 
      3 O          30.6524   28.4545    0.8647 O.2       0 UNK        -0.5359 
      4 N          31.3186   26.3180    0.6374 N.am      1 UNK        -0.4318 
      5 CA         30.0794   25.7992    0.0511 C.3       1 UNK         0.0824 
      6 C6         29.8420   24.2977    0.3681 C.3       12 UNK        -0.0944 
      7 S7         31.3175   23.2318    0.1854 S.3       12 UNK        -0.2672 
      8 C8         30.8896   21.8023    1.2418 C.3       12 UNK         0.0333 
      9 C9         30.5216   22.1915    2.6708 C.ar      12 UNK        -0.0807 
     10 C10        31.3654   23.0137    3.4247 C.ar      12 UNK        -0.0894 
     11 C11        31.0012   23.4125    4.7129 C.ar      12 UNK        -0.0804 
     12 C12        29.7942   22.9688    5.2593 C.ar      12 UNK        -0.0824 
     13 C13        28.9509   22.1301    4.5258 C.ar      12 UNK        -0.0762 
     14 C14        29.3217   21.7422    3.2336 C.ar      12 UNK        -0.0782 
     15 C15        27.6461   21.6355    5.1360 C.3       12 UNK         0.0230 
     16 S16        26.1829   22.2263    4.2270 S.3       12 UNK        -0.2608 
     17 C17        26.2284   24.0306    4.5241 C.3       12 UNK        -0.0989 
     18 CA         26.8439   24.8343    3.3423 C.3       5 UNK         0.0716 
     19 N          26.2838   24.4621    2.0359 N.am      5 UNK        -0.4135 
     20 C          25.0361   24.6706    1.5903 C.2       4 UNK         0.5031 
     21 O          24.1500   25.2437    2.2274 O.2       4 UNK        -0.5229 
     22 CA         24.7500   24.1622    0.1611 C.3       4 UNK         0.0329 
     23 CB         23.3494   23.5314    0.0643 C.3       4 UNK        -0.2001 
     24 N          24.8863   25.1824   -0.8895 N.am      4 UNK        -0.4303 
     25 C          25.9000   26.0449   -1.0450 C.2       3 UNK         0.5044 
     26 O          26.8410   26.1561   -0.2509 O.2       3 UNK        -0.5152 
     27 CA         25.8803   26.9238   -2.3079 C.3       3 UNK         0.0319 
     28 CB         24.7454   27.9619   -2.2769 C.3       3 UNK        -0.2001 
     29 N          27.1685   27.6035   -2.3502 N.am      3 UNK        -0.4354 
     30 C          28.0027   27.6928   -3.3897 C.2       2 UNK         0.4964 
     31 O          27.6831   27.4797   -4.5594 O.2       2 UNK        -0.5047 
     32 CA         29.4667   28.0247   -3.0348 C.3       2 UNK         0.0288 
     33 CB         29.6935   29.5450   -3.0254 C.3       2 UNK        -0.2113 
     34 N          29.8569   27.4690   -1.7312 N.am      2 UNK        -0.4145 
     35 C          29.9469   26.1602   -1.4466 C.2       1 UNK         0.5006 
     36 O          29.8992   25.2759   -2.3041 O.2       1 UNK        -0.5103 
     37 C          26.8270   26.3653    3.5853 C.2       5 UNK         0.5055 
     38 O          26.6350   26.7991    4.7228 O.2       5 UNK        -0.5220 
     39 N          27.0003   27.1574    2.5132 N.am      6 UNK        -0.4450 
     40 CA         26.8621   28.6198    2.5108 C.3       6 UNK         0.0367 
     41 CB         26.9619   29.1401    1.0680 C.3       6 UNK        -0.1929 
     42 C          27.8530   29.3874    3.4026 C.2       6 UNK         0.5070 
     43 O          27.4837   30.4403    3.9239 O.2       6 UNK        -0.5237 
     44 N          29.0855   28.8736    3.5311 N.am      7 UNK        -0.4739 
     45 CA         30.2286   29.4965    4.2163 C.3       7 UNK         0.0276 
     46 CB         29.9797   29.5903    5.7369 C.3       7 UNK        -0.1927 
     47 C          30.6359   30.8466    3.5885 C.2       7 UNK         0.5013 
     48 O          30.9551   31.7964    4.3086 O.2       7 UNK        -0.5193 
     49 N          30.6169   30.9059    2.2494 N.am      8 UNK        -0.4253 
     50 CA         30.9967   32.0642    1.4421 C.3       8 UNK         0.0242 
     51 CB         30.6537   31.7866   -0.0316 C.3       8 UNK        -0.2000 
     52 C          32.4898   32.3796    1.6220 C.2       8 UNK         0.4948 
     53 O          33.3286   31.5677    1.2284 O.2       8 UNK        -0.5275 
     54 N          32.7752   33.5314    2.2480 N.am      9 UNK        -0.4246 
     55 CA         34.0968   33.9828    2.7077 C.3       9 UNK         0.0261 
     56 CB         35.0465   34.2415    1.5171 C.3       9 UNK        -0.1959 
     57 C          34.7063   33.0557    3.7835 C.2       9 UNK         0.5033 
     58 O          35.9259   32.8783    3.8127 O.2       9 UNK        -0.5390 
     59 N          33.8344   32.5127    4.6499 N.am      10 UNK        -0.4215 
     60 CA         34.0610   31.5158    5.7041 C.3       10 UNK         0.0240 
     61 CB         35.2371   31.8808    6.6332 C.3       10 UNK        -0.1982 
     62 C          34.1964   30.0930    5.1372 C.2       10 UNK         0.4970 
     63 O          34.6845   29.8998    4.0234 O.2       10 UNK        -0.4916 
     64 N          33.7420   29.1131    5.9266 N.am      11 UNK        -0.4279 
     65 CA         33.7083   27.6895    5.5532 C.3       11 UNK         0.1003 
     66 C          35.0797   26.9553    5.6284 C.2       11 UNK         0.5709 
     67 N          36.1298   27.5600    6.1712 N.am      11 UNK        -0.7358 
     68 O          35.1952   25.8189    5.1774 O.2       11 UNK        -0.4999 
     69 C69        32.5879   26.9354    6.3286 C.3       12 UNK        -0.0954 
     70 S70        31.4362   26.0701    5.2133 S.3       12 UNK        -0.2268 
     71 C71        31.9010   24.3409    5.5076 C.3       12 UNK         0.0203 
     72 H72        33.5049   28.4048    0.7397 H         1 UNK         0.0888 
     73 H73        32.8008   28.7027    2.3231 H         1 UNK         0.0888 
     74 H74        33.4195   27.0974    1.9292 H         1 UNK         0.0888 
     75 H75        32.0623   25.6393    0.7267 H         1 UNK         0.3017 
     76 H76        29.2588   26.3277    0.5389 H         1 UNK         0.0873 
     77 H77        29.0260   23.8866   -0.2295 H         1 UNK         0.0745 
     78 H78        29.4983   24.2337    1.3995 H         1 UNK         0.0745 
     79 H79        31.7390   21.1188    1.2701 H         1 UNK         0.0705 
     80 H80        30.0715   21.2581    0.7672 H         1 UNK         0.0705 
     81 H81        32.2940   23.3665    2.9969 H         1 UNK         0.1334 
     82 H82        29.5122   23.2821    6.2554 H         1 UNK         0.1417 
     83 H83        28.6634   21.1003    2.6635 H         1 UNK         0.1562 
     84 H84        27.5618   21.9328    6.1825 H         1 UNK         0.0748 
     85 H85        27.6454   20.5447    5.1289 H         1 UNK         0.0748 
     86 H86        26.7779   24.2266    5.4468 H         1 UNK         0.0940 
     87 H87        25.2046   24.3608    4.7093 H         1 UNK         0.0940 
     88 H88        27.9009   24.5699    3.2924 H         1 UNK         0.0703 
     89 H89        26.9312   24.0146    1.4048 H         1 UNK         0.3081 
     90 H90        25.4744   23.3770   -0.0644 H         1 UNK         0.0719 
     91 H91        22.5619   24.2747    0.1961 H         1 UNK         0.0809 
     92 H92        23.1958   23.0461   -0.8997 H         1 UNK         0.0809 
     93 H93        23.2100   22.7703    0.8335 H         1 UNK         0.0809 
     94 H94        24.1552   25.1897   -1.5857 H         1 UNK         0.2990 
     95 H95        25.7674   26.2736   -3.1780 H         1 UNK         0.0690 
     96 H96        24.7807   28.6057   -3.1559 H         1 UNK         0.0788 
     97 H97        24.7970   28.6017   -1.3965 H         1 UNK         0.0788 
     98 H98        23.7680   27.4785   -2.2720 H         1 UNK         0.0788 
     99 H99        27.5690   27.7247   -1.4297 H         1 UNK         0.2993 
    100 H100       30.1051   27.5795   -3.8010 H         1 UNK         0.0949 
    101 H101       30.7379   29.7888   -2.8295 H         1 UNK         0.0767 
    102 H102       29.4341   29.9835   -3.9900 H         1 UNK         0.0767 
    103 H103       29.0853   30.0402   -2.2672 H         1 UNK         0.0767 
    104 H104       29.9833   28.1200   -0.9613 H         1 UNK         0.3013 
    105 H105       27.0794   26.7150    1.6016 H         1 UNK         0.3121 
    106 H106       25.8602   28.8461    2.8816 H         1 UNK         0.0774 
    107 H107       26.8835   30.2279    1.0346 H         1 UNK         0.0815 
    108 H108       27.9107   28.8681    0.6049 H         1 UNK         0.0815 
    109 H109       26.1554   28.7440    0.4550 H         1 UNK         0.0815 
    110 H110       29.2864   28.0219    3.0262 H         1 UNK         0.2987 
    111 H111       31.0775   28.8299    4.0656 H         1 UNK         0.0949 
    112 H112       29.1847   30.2969    5.9760 H         1 UNK         0.0806 
    113 H113       29.7028   28.6216    6.1526 H         1 UNK         0.0806 
    114 H114       30.8754   29.9250    6.2600 H         1 UNK         0.0806 
    115 H115       30.4293   30.0462    1.7366 H         1 UNK         0.3010 
    116 H116       30.4017   32.9168    1.7761 H         1 UNK         0.0829 
    117 H117       29.5884   31.5952   -0.1613 H         1 UNK         0.0813 
    118 H118       30.9110   32.6399   -0.6601 H         1 UNK         0.0813 
    119 H119       31.1972   30.9222   -0.4159 H         1 UNK         0.0813 
    120 H120       32.0002   34.1171    2.5294 H         1 UNK         0.3038 
    121 H121       33.9320   34.9410    3.2027 H         1 UNK         0.0769 
    122 H122       35.9680   34.7203    1.8503 H         1 UNK         0.0811 
    123 H123       34.5890   34.9002    0.7792 H         1 UNK         0.0811 
    124 H124       35.3277   33.3160    1.0137 H         1 UNK         0.0811 
    125 H125       32.8501   32.6834    4.4688 H         1 UNK         0.3204 
    126 H126       33.1502   31.5393    6.3050 H         1 UNK         0.0748 
    127 H127       35.2534   31.2350    7.5118 H         1 UNK         0.0771 
    128 H128       36.2015   31.7683    6.1371 H         1 UNK         0.0771 
    129 H129       35.1592   32.9082    6.9890 H         1 UNK         0.0771 
    130 H130       33.3972   29.3390    6.8479 H         1 UNK         0.2980 
    131 H131       33.4549   27.6681    4.4923 H         1 UNK         0.0545 
    132 H132       36.0516   28.4951    6.5360 H         1 UNK         0.3459 
    133 H133       37.0123   27.0748    6.2084 H         1 UNK         0.3459 
    134 H134       32.9938   26.2367    7.0629 H         1 UNK         0.0616 
    135 H135       31.9809   27.6280    6.9130 H         1 UNK         0.0616 
    136 H136       31.8248   24.1166    6.5727 H         1 UNK         0.0634 
    137 H137       32.9449   24.1903    5.2285 H         1 UNK         0.0634 
@<TRIPOS>BOND
     1    1    2 1    
     2    1   72 1    
     3    1   73 1    
     4    1   74 1    
     5    2    3 2    
     6    2    4 am   BACKBONE|DICT|INTERRES
     7    4    5 1    
     8    4   75 1    
     9    5    6 1    
    10    5   35 1    
    11    5   76 1    
    12    6    7 1    
    13    6   77 1    
    14    6   78 1    
    15    7    8 1    
    16    8    9 1    
    17    8   79 1    
    18    8   80 1    
    19    9   10 ar   
    20    9   14 ar   
    21   10   11 ar   
    22   10   81 1    
    23   11   12 ar   
    24   11   71 1    
    25   12   13 ar   
    26   12   82 1    
    27   13   14 ar   
    28   13   15 1    
    29   14   83 1    
    30   15   16 1    
    31   15   84 1    
    32   15   85 1    
    33   16   17 1    
    34   17   18 1    
    35   17   86 1    
    36   17   87 1    
    37   18   19 1    
    38   18   37 1    
    39   18   88 1    
    40   19   20 am   BACKBONE|DICT|INTERRES
    41   19   89 1    
    42   20   21 2    
    43   20   22 1    
    44   22   23 1    
    45   22   24 1    
    46   22   90 1    
    47   23   91 1    
    48   23   92 1    
    49   23   93 1    
    50   24   25 am   BACKBONE|DICT|INTERRES
    51   24   94 1    
    52   25   26 2    
    53   25   27 1    
    54   27   28 1    
    55   27   29 1    
    56   27   95 1    
    57   28   96 1    
    58   28   97 1    
    59   28   98 1    
    60   29   30 am   BACKBONE|DICT|INTERRES
    61   29   99 1    
    62   30   31 2    
    63   30   32 1    
    64   32   33 1    
    65   32   34 1    
    66   32  100 1    
    67   33  101 1    
    68   33  102 1    
    69   33  103 1    
    70   34   35 am   BACKBONE|DICT|INTERRES
    71   34  104 1    
    72   35   36 2    
    73   37   38 2    
    74   37   39 am   BACKBONE|DICT|INTERRES
    75   39   40 1    
    76   39  105 1    
    77   40   41 1    
    78   40   42 1    
    79   40  106 1    
    80   41  107 1    
    81   41  108 1    
    82   41  109 1    
    83   42   43 2    
    84   42   44 am   BACKBONE|DICT|INTERRES
    85   44   45 1    
    86   44  110 1    
    87   45   46 1    
    88   45   47 1    
    89   45  111 1    
    90   46  112 1    
    91   46  113 1    
    92   46  114 1    
    93   47   48 2    
    94   47   49 am   BACKBONE|DICT|INTERRES
    95   49   50 1    
    96   49  115 1    
    97   50   51 1    
    98   50   52 1    
    99   50  116 1    
   100   51  117 1    
   101   51  118 1    
   102   51  119 1    
   103   52   53 2    
   104   52   54 am   BACKBONE|DICT|INTERRES
   105   54   55 1    
   106   54  120 1    
   107   55   56 1    
   108   55   57 1    
   109   55  121 1    
   110   56  122 1    
   111   56  123 1    
   112   56  124 1    
   113   57   58 2    
   114   57   59 am   BACKBONE|DICT|INTERRES
   115   59   60 1    
   116   59  125 1    
   117   60   61 1    
   118   60   62 1    
   119   60  126 1    
   120   61  127 1    
   121   61  128 1    
   122   61  129 1    
   123   62   63 2    
   124   62   64 am   BACKBONE|DICT|INTERRES
   125   64   65 1    
   126   64  130 1    
   127   65   66 1    
   128   65   69 1    
   129   65  131 1    
   130   66   67 am   BACKBONE|DICT|INTERRES
   131   66   68 2    
   132   67  132 1    
   133   67  133 1    
   134   69   70 1    
   135   69  134 1    
   136   69  135 1    
   137   70   71 1    
   138   71  136 1    
   139   71  137 1    
@<TRIPOS>SUBSTRUCTURE
     1 UNK         1 GROUP             0       ****    0 ROOT    
