@<TRIPOS>MOLECULE
3R136
137   139    1
SMALL
USER_CHARGES


@<TRIPOS>ATOM
      1 CA         35.0088   22.6219   -1.5623 C.3       0 UNK        -0.1979 
      2 C          34.0445   23.3755   -0.6581 C.2       0 UNK         0.4864 
      3 O          34.4491   24.3312    0.0060 O.2       0 UNK        -0.5359 
      4 N          32.7765   22.9469   -0.6197 N.am      1 UNK        -0.4318 
      5 CA         31.7069   23.5833    0.1544 C.3       1 UNK         0.0824 
      6 C6         30.4867   22.6462    0.3373 C.3       12 UNK        -0.0944 
      7 S7         30.8564   21.1249    1.2750 S.3       12 UNK        -0.2672 
      8 C8         31.3558   21.7546    2.9154 C.3       12 UNK         0.0333 
      9 C9         30.4122   22.8163    3.4686 C.ar      12 UNK        -0.0807 
     10 C10        30.8674   24.1225    3.6735 C.ar      12 UNK        -0.0894 
     11 C11        30.0121   25.1010    4.1866 C.ar      12 UNK        -0.0804 
     12 C12        28.6938   24.7642    4.5045 C.ar      12 UNK        -0.0824 
     13 C13        28.2214   23.4647    4.2935 C.ar      12 UNK        -0.0762 
     14 C14        29.0875   22.4941    3.7796 C.ar      12 UNK        -0.0782 
     15 C15        26.7827   23.0992    4.6319 C.3       12 UNK         0.0230 
     16 S16        25.6283   23.5567    3.2967 S.3       12 UNK        -0.2608 
     17 C17        25.3441   25.3285    3.6356 C.3       12 UNK        -0.0989 
     18 CA         25.9782   26.2565    2.5594 C.3       5 UNK         0.0716 
     19 N          25.4330   26.0526    1.2120 N.am      5 UNK        -0.4135 
     20 C          24.1676   26.2635    0.8148 C.2       4 UNK         0.5031 
     21 O          23.2621   26.6101    1.5755 O.2       4 UNK        -0.5229 
     22 CA         23.8651   26.0824   -0.6909 C.3       4 UNK         0.0329 
     23 CB         22.6774   26.9507   -1.1589 C.3       4 UNK        -0.2001 
     24 N          25.0271   26.2977   -1.5662 N.am      4 UNK        -0.4303 
     25 C          25.7931   27.3966   -1.6268 C.2       3 UNK         0.5044 
     26 O          25.6085   28.4090   -0.9499 O.2       3 UNK        -0.5152 
     27 CA         27.0244   27.3197   -2.5431 C.3       3 UNK         0.0319 
     28 CB         26.9677   28.4078   -3.6278 C.3       3 UNK        -0.2001 
     29 N          28.2714   27.4539   -1.7837 N.am      3 UNK        -0.4354 
     30 C          28.6490   26.6630   -0.7695 C.2       2 UNK         0.4964 
     31 O          27.9763   25.7215   -0.3376 O.2       2 UNK        -0.5047 
     32 CA         29.9889   27.0026   -0.0973 C.3       2 UNK         0.0288 
     33 CB         29.7559   27.9183    1.1132 C.3       2 UNK        -0.2113 
     34 N          30.6619   25.7826    0.3460 N.am      2 UNK        -0.4145 
     35 C          31.2549   24.9117   -0.4821 C.2       1 UNK         0.5006 
     36 O          31.4027   25.1049   -1.6927 O.2       1 UNK        -0.5103 
     37 C          25.9917   27.7435    2.9959 C.2       5 UNK         0.5055 
     38 O          26.1075   28.0139    4.1935 O.2       5 UNK        -0.5220 
     39 N          25.9083   28.6938    2.0492 N.am      6 UNK        -0.4450 
     40 CA         25.9926   30.1335    2.3118 C.3       6 UNK         0.0367 
     41 CB         25.3192   30.9049    1.1622 C.3       6 UNK        -0.1929 
     42 C          27.4600   30.5487    2.5168 C.2       6 UNK         0.5070 
     43 O          28.0942   31.0450    1.5847 O.2       6 UNK        -0.5237 
     44 N          27.9765   30.2707    3.7212 N.am      7 UNK        -0.4739 
     45 CA         29.3664   30.4510    4.1493 C.3       7 UNK         0.0276 
     46 CB         29.4716   30.1088    5.6439 C.3       7 UNK        -0.1927 
     47 C          29.9188   31.8630    3.8872 C.2       7 UNK         0.5013 
     48 O          29.3179   32.8486    4.3225 O.2       7 UNK        -0.5193 
     49 N          31.0638   31.9188    3.2036 N.am      8 UNK        -0.4253 
     50 CA         31.8034   33.1244    2.8502 C.3       8 UNK         0.0242 
     51 CB         31.1086   33.8768    1.6979 C.3       8 UNK        -0.2000 
     52 C          33.2021   32.6480    2.4600 C.2       8 UNK         0.4948 
     53 O          33.3507   32.0327    1.4014 O.2       8 UNK        -0.5275 
     54 N          34.1771   32.8474    3.3580 N.am      9 UNK        -0.4246 
     55 CA         35.5481   32.3099    3.3445 C.3       9 UNK         0.0261 
     56 CB         36.3492   32.7777    2.1124 C.3       9 UNK        -0.1959 
     57 C          35.5912   30.7789    3.5105 C.2       9 UNK         0.5033 
     58 O          36.2052   30.2906    4.4612 O.2       9 UNK        -0.5390 
     59 N          34.8978   30.0542    2.6222 N.am      10 UNK        -0.4215 
     60 CA         34.6133   28.6230    2.7245 C.3       10 UNK         0.0240 
     61 CB         33.8545   28.1596    1.4697 C.3       10 UNK        -0.1982 
     62 C          33.8035   28.3288    3.9973 C.2       10 UNK         0.4970 
     63 O          32.7725   28.9702    4.2115 O.2       10 UNK        -0.4916 
     64 N          34.3261   27.4020    4.8095 N.am      11 UNK        -0.4279 
     65 CA         33.8839   27.0326    6.1655 C.3       11 UNK         0.1003 
     66 C          33.8763   28.1796    7.2257 C.2       11 UNK         0.5709 
     67 N          34.5116   29.3194    6.9745 N.am      11 UNK        -0.7358 
     68 O          33.3396   28.0162    8.3190 O.2       11 UNK        -0.4999 
     69 C69        32.6487   26.0807    6.1868 C.3       12 UNK        -0.0954 
     70 S70        31.0039   26.8667    6.0901 S.3       12 UNK        -0.2268 
     71 C71        30.5005   26.5286    4.3766 C.3       12 UNK         0.0203 
     72 H72        34.5225   21.7928   -2.0762 H         1 UNK         0.0888 
     73 H73        35.4188   23.2940   -2.3156 H         1 UNK         0.0888 
     74 H74        35.8354   22.2198   -0.9772 H         1 UNK         0.0888 
     75 H75        32.4949   22.1655   -1.1938 H         1 UNK         0.3017 
     76 H76        32.1177   23.8259    1.1344 H         1 UNK         0.0873 
     77 H77        29.6657   23.1593    0.8426 H         1 UNK         0.0745 
     78 H78        30.0889   22.3509   -0.6355 H         1 UNK         0.0745 
     79 H79        31.3963   20.9171    3.6132 H         1 UNK         0.0705 
     80 H80        32.3751   22.1378    2.8487 H         1 UNK         0.0705 
     81 H81        31.8907   24.3791    3.4370 H         1 UNK         0.1334 
     82 H82        28.0368   25.5199    4.9118 H         1 UNK         0.1417 
     83 H83        28.7319   21.4859    3.6145 H         1 UNK         0.1562 
     84 H84        26.4826   23.5661    5.5712 H         1 UNK         0.0748 
     85 H85        26.7037   22.0238    4.7988 H         1 UNK         0.0748 
     86 H86        25.7288   25.5571    4.6299 H         1 UNK         0.0940 
     87 H87        24.2687   25.4967    3.7051 H         1 UNK         0.0940 
     88 H88        27.0317   25.9861    2.4789 H         1 UNK         0.0703 
     89 H89        26.1200   25.7825    0.5145 H         1 UNK         0.3081 
     90 H90        23.5796   25.0367   -0.8137 H         1 UNK         0.0719 
     91 H91        22.8693   28.0131   -1.0042 H         1 UNK         0.0809 
     92 H92        22.4667   26.7986   -2.2173 H         1 UNK         0.0809 
     93 H93        21.7675   26.7017   -0.6113 H         1 UNK         0.0809 
     94 H94        25.2937   25.5042   -2.1335 H         1 UNK         0.2990 
     95 H95        27.0419   26.3460   -3.0371 H         1 UNK         0.0690 
     96 H96        27.8056   28.3243   -4.3201 H         1 UNK         0.0788 
     97 H97        26.9859   29.4095   -3.1961 H         1 UNK         0.0788 
     98 H98        26.0529   28.3240   -4.2163 H         1 UNK         0.0788 
     99 H99        28.8667   28.2275   -2.0418 H         1 UNK         0.2993 
    100 H100       30.6357   27.5166   -0.8121 H         1 UNK         0.0949 
    101 H101       29.3630   28.8815    0.7891 H         1 UNK         0.0767 
    102 H102       29.0364   27.4918    1.8125 H         1 UNK         0.0767 
    103 H103       30.6795   28.1144    1.6559 H         1 UNK         0.0767 
    104 H104       30.5136   25.5163    1.3077 H         1 UNK         0.3013 
    105 H105       25.8291   28.4247    1.0727 H         1 UNK         0.3121 
    106 H106       25.4412   30.3635    3.2263 H         1 UNK         0.0774 
    107 H107       24.2820   30.5965    1.0306 H         1 UNK         0.0815 
    108 H108       25.3186   31.9766    1.3636 H         1 UNK         0.0815 
    109 H109       25.8348   30.7550    0.2131 H         1 UNK         0.0815 
    110 H110       27.3664   29.7998    4.3786 H         1 UNK         0.2987 
    111 H111       29.9659   29.7278    3.5929 H         1 UNK         0.0949 
    112 H112       30.5131   30.1132    5.9699 H         1 UNK         0.0806 
    113 H113       29.0699   29.1185    5.8565 H         1 UNK         0.0806 
    114 H114       28.9301   30.8262    6.2620 H         1 UNK         0.0806 
    115 H115       31.5036   31.0538    2.9150 H         1 UNK         0.3010 
    116 H116       31.8669   33.7805    3.7209 H         1 UNK         0.0829 
    117 H117       30.1267   34.2441    1.9966 H         1 UNK         0.0813 
    118 H118       31.6968   34.7404    1.3858 H         1 UNK         0.0813 
    119 H119       30.9716   33.2390    0.8235 H         1 UNK         0.0813 
    120 H120       33.9287   33.3327    4.2098 H         1 UNK         0.3038 
    121 H121       36.0375   32.7320    4.2239 H         1 UNK         0.0769 
    122 H122       35.9458   32.3845    1.1791 H         1 UNK         0.0811 
    123 H123       37.3865   32.4468    2.1782 H         1 UNK         0.0811 
    124 H124       36.3608   33.8651    2.0388 H         1 UNK         0.0811 
    125 H125       34.3702   30.5809    1.9288 H         1 UNK         0.3204 
    126 H126       35.5673   28.0936    2.7686 H         1 UNK         0.0748 
    127 H127       34.4627   28.2817    0.5733 H         1 UNK         0.0771 
    128 H128       33.5866   27.1039    1.5368 H         1 UNK         0.0771 
    129 H129       32.9337   28.7250    1.3251 H         1 UNK         0.0771 
    130 H130       35.1910   26.9668    4.5236 H         1 UNK         0.2980 
    131 H131       34.7105   26.4124    6.5137 H         1 UNK         0.0545 
    132 H132       34.9916   29.4677    6.0963 H         1 UNK         0.3459 
    133 H133       34.5167   30.0408    7.6773 H         1 UNK         0.3459 
    134 H134       32.6595   25.5127    7.1183 H         1 UNK         0.0616 
    135 H135       32.7469   25.3320    5.4021 H         1 UNK         0.0616 
    136 H136       29.7008   27.2224    4.1156 H         1 UNK         0.0634 
    137 H137       31.3256   26.7445    3.6981 H         1 UNK         0.0634 
@<TRIPOS>BOND
     1    1    2 1    
     2    1   72 1    
     3    1   73 1    
     4    1   74 1    
     5    2    3 2    
     6    2    4 am   BACKBONE|DICT|INTERRES
     7    4    5 1    
     8    4   75 1    
     9    5    6 1    
    10    5   35 1    
    11    5   76 1    
    12    6    7 1    
    13    6   77 1    
    14    6   78 1    
    15    7    8 1    
    16    8    9 1    
    17    8   79 1    
    18    8   80 1    
    19    9   10 ar   
    20    9   14 ar   
    21   10   11 ar   
    22   10   81 1    
    23   11   12 ar   
    24   11   71 1    
    25   12   13 ar   
    26   12   82 1    
    27   13   14 ar   
    28   13   15 1    
    29   14   83 1    
    30   15   16 1    
    31   15   84 1    
    32   15   85 1    
    33   16   17 1    
    34   17   18 1    
    35   17   86 1    
    36   17   87 1    
    37   18   19 1    
    38   18   37 1    
    39   18   88 1    
    40   19   20 am   BACKBONE|DICT|INTERRES
    41   19   89 1    
    42   20   21 2    
    43   20   22 1    
    44   22   23 1    
    45   22   24 1    
    46   22   90 1    
    47   23   91 1    
    48   23   92 1    
    49   23   93 1    
    50   24   25 am   BACKBONE|DICT|INTERRES
    51   24   94 1    
    52   25   26 2    
    53   25   27 1    
    54   27   28 1    
    55   27   29 1    
    56   27   95 1    
    57   28   96 1    
    58   28   97 1    
    59   28   98 1    
    60   29   30 am   BACKBONE|DICT|INTERRES
    61   29   99 1    
    62   30   31 2    
    63   30   32 1    
    64   32   33 1    
    65   32   34 1    
    66   32  100 1    
    67   33  101 1    
    68   33  102 1    
    69   33  103 1    
    70   34   35 am   BACKBONE|DICT|INTERRES
    71   34  104 1    
    72   35   36 2    
    73   37   38 2    
    74   37   39 am   BACKBONE|DICT|INTERRES
    75   39   40 1    
    76   39  105 1    
    77   40   41 1    
    78   40   42 1    
    79   40  106 1    
    80   41  107 1    
    81   41  108 1    
    82   41  109 1    
    83   42   43 2    
    84   42   44 am   BACKBONE|DICT|INTERRES
    85   44   45 1    
    86   44  110 1    
    87   45   46 1    
    88   45   47 1    
    89   45  111 1    
    90   46  112 1    
    91   46  113 1    
    92   46  114 1    
    93   47   48 2    
    94   47   49 am   BACKBONE|DICT|INTERRES
    95   49   50 1    
    96   49  115 1    
    97   50   51 1    
    98   50   52 1    
    99   50  116 1    
   100   51  117 1    
   101   51  118 1    
   102   51  119 1    
   103   52   53 2    
   104   52   54 am   BACKBONE|DICT|INTERRES
   105   54   55 1    
   106   54  120 1    
   107   55   56 1    
   108   55   57 1    
   109   55  121 1    
   110   56  122 1    
   111   56  123 1    
   112   56  124 1    
   113   57   58 2    
   114   57   59 am   BACKBONE|DICT|INTERRES
   115   59   60 1    
   116   59  125 1    
   117   60   61 1    
   118   60   62 1    
   119   60  126 1    
   120   61  127 1    
   121   61  128 1    
   122   61  129 1    
   123   62   63 2    
   124   62   64 am   BACKBONE|DICT|INTERRES
   125   64   65 1    
   126   64  130 1    
   127   65   66 1    
   128   65   69 1    
   129   65  131 1    
   130   66   67 am   BACKBONE|DICT|INTERRES
   131   66   68 2    
   132   67  132 1    
   133   67  133 1    
   134   69   70 1    
   135   69  134 1    
   136   69  135 1    
   137   70   71 1    
   138   71  136 1    
   139   71  137 1    
@<TRIPOS>SUBSTRUCTURE
     1 UNK         1 GROUP             0       ****    0 ROOT    
