@<TRIPOS>MOLECULE
3R136
137   139    1
SMALL
USER_CHARGES


@<TRIPOS>ATOM
      1 CA         28.6079   25.7306    3.2322 C.3       0 UNK        -0.1979 
      2 C          27.9323   24.3812    3.0604 C.2       0 UNK         0.4864 
      3 O          26.7034   24.3159    3.0194 O.2       0 UNK        -0.5359 
      4 N          28.7205   23.3011    2.9553 N.am      1 UNK        -0.4318 
      5 CA         28.2343   21.9138    2.9361 C.3       1 UNK         0.0824 
      6 C6         29.3844   20.8898    3.1208 C.3       12 UNK        -0.0944 
      7 S7         30.4864   20.6795    1.6764 S.3       12 UNK        -0.2672 
      8 C8         32.0340   21.4651    2.2254 C.3       12 UNK         0.0333 
      9 C9         32.0171   22.9773    2.0485 C.ar      12 UNK        -0.0807 
     10 C10        32.2149   23.8212    3.1456 C.ar      12 UNK        -0.0894 
     11 C11        32.2799   25.2072    2.9703 C.ar      12 UNK        -0.0804 
     12 C12        32.1251   25.7496    1.6902 C.ar      12 UNK        -0.0824 
     13 C13        31.9048   24.9173    0.5893 C.ar      12 UNK        -0.0762 
     14 C14        31.8603   23.5326    0.7740 C.ar      12 UNK        -0.0782 
     15 C15        31.7382   25.5063   -0.8046 C.3       12 UNK         0.0230 
     16 S16        29.9863   25.5940   -1.2934 S.3       12 UNK        -0.2608 
     17 C17        29.3740   26.9708   -0.2650 C.3       12 UNK        -0.0989 
     18 CA         28.4573   27.9462   -1.0438 C.3       5 UNK         0.0716 
     19 N          27.2961   27.2491   -1.6027 N.am      5 UNK        -0.4135 
     20 C          26.4230   27.7436   -2.4897 C.2       4 UNK         0.5031 
     21 O          26.5488   28.8374   -3.0410 O.2       4 UNK        -0.5229 
     22 CA         25.1778   26.8844   -2.7869 C.3       4 UNK         0.0329 
     23 CB         25.3434   26.1478   -4.1258 C.3       4 UNK        -0.2001 
     24 N          24.8571   25.9034   -1.7414 N.am      4 UNK        -0.4303 
     25 C          24.5690   26.1672   -0.4593 C.2       3 UNK         0.5044 
     26 O          24.5289   27.3068    0.0055 O.2       3 UNK        -0.5152 
     27 CA         24.3566   24.9646    0.4789 C.3       3 UNK         0.0319 
     28 CB         22.9208   24.4152    0.3730 C.3       3 UNK        -0.2001 
     29 N          25.3673   23.9029    0.3362 N.am      3 UNK        -0.4354 
     30 C          25.5787   23.0736   -0.7009 C.2       2 UNK         0.4964 
     31 O          24.8882   23.0782   -1.7209 O.2       2 UNK        -0.5047 
     32 CA         26.7843   22.1162   -0.6373 C.3       2 UNK         0.0288 
     33 CB         27.7223   22.3458   -1.8355 C.3       2 UNK        -0.2113 
     34 N          27.5635   22.2499    0.5941 N.am      2 UNK        -0.4145 
     35 C          27.3263   21.5795    1.7301 C.2       1 UNK         0.5006 
     36 O          26.4260   20.7479    1.8597 O.2       1 UNK        -0.5103 
     37 C          28.0706   29.1405   -0.1375 C.2       5 UNK         0.5055 
     38 O          28.9334   29.9809    0.1215 O.2       5 UNK        -0.5220 
     39 N          26.8121   29.1956    0.3342 N.am      6 UNK        -0.4450 
     40 CA         26.2543   30.1873    1.2595 C.3       6 UNK         0.0367 
     41 CB         26.2203   31.5944    0.6179 C.3       6 UNK        -0.1929 
     42 C          26.9479   30.1193    2.6345 C.2       6 UNK         0.5070 
     43 O          27.0618   29.0250    3.1889 O.2       6 UNK        -0.5237 
     44 N          27.3841   31.2636    3.1695 N.am      7 UNK        -0.4739 
     45 CA         28.1266   31.3787    4.4212 C.3       7 UNK         0.0276 
     46 CB         27.1635   31.7558    5.5600 C.3       7 UNK        -0.1927 
     47 C          29.2184   32.4392    4.2465 C.2       7 UNK         0.5013 
     48 O          29.0390   33.3778    3.4649 O.2       7 UNK        -0.5193 
     49 N          30.3167   32.2768    4.9876 N.am      8 UNK        -0.4253 
     50 CA         31.4935   33.1404    4.9979 C.3       8 UNK         0.0242 
     51 CB         32.3133   32.9369    3.7073 C.3       8 UNK        -0.2000 
     52 C          32.3214   32.8020    6.2451 C.2       8 UNK         0.4948 
     53 O          32.0405   31.8009    6.9113 O.2       8 UNK        -0.5275 
     54 N          33.3348   33.6302    6.5332 N.am      9 UNK        -0.4246 
     55 CA         34.2552   33.4634    7.6663 C.3       9 UNK         0.0261 
     56 CB         35.0958   34.7410    7.8267 C.3       9 UNK        -0.1959 
     57 C          35.1719   32.2282    7.5583 C.2       9 UNK         0.5033 
     58 O          35.6353   31.7315    8.5862 O.2       9 UNK        -0.5390 
     59 N          35.4113   31.7551    6.3313 N.am      10 UNK        -0.4215 
     60 CA         36.1454   30.5394    6.0012 C.3       10 UNK         0.0240 
     61 CB         37.6519   30.8422    5.9075 C.3       10 UNK        -0.1982 
     62 C          35.5986   30.0125    4.6703 C.2       10 UNK         0.4970 
     63 O          35.0345   30.7909    3.8967 O.2       10 UNK        -0.4916 
     64 N          35.7818   28.7115    4.4232 N.am      11 UNK        -0.4279 
     65 CA         35.3136   28.0233    3.2075 C.3       11 UNK         0.1003 
     66 C          36.1025   28.3699    1.9101 C.2       11 UNK         0.5709 
     67 N          37.2575   29.0211    1.9845 N.am      11 UNK        -0.7358 
     68 O          35.6515   28.0467    0.8140 O.2       11 UNK        -0.4999 
     69 C69        35.2356   26.4870    3.4080 C.3       12 UNK        -0.0954 
     70 S70        34.2064   25.9850    4.8307 S.3       12 UNK        -0.2268 
     71 C71        32.5156   26.1221    4.1638 C.3       12 UNK         0.0203 
     72 H72        29.5647   25.7637    2.7183 H         1 UNK         0.0888 
     73 H73        27.9792   26.5243    2.8302 H         1 UNK         0.0888 
     74 H74        28.7754   25.9361    4.2889 H         1 UNK         0.0888 
     75 H75        29.7257   23.4125    2.9495 H         1 UNK         0.3017 
     76 H76        27.5929   21.8174    3.8152 H         1 UNK         0.0873 
     77 H77        29.9760   21.1519    3.9992 H         1 UNK         0.0745 
     78 H78        28.9605   19.9095    3.3466 H         1 UNK         0.0745 
     79 H79        32.8544   21.0596    1.6317 H         1 UNK         0.0705 
     80 H80        32.2439   21.1857    3.2590 H         1 UNK         0.0705 
     81 H81        32.3494   23.4029    4.1342 H         1 UNK         0.1334 
     82 H82        32.1785   26.8207    1.5506 H         1 UNK         0.1417 
     83 H83        31.7092   22.8835   -0.0783 H         1 UNK         0.1562 
     84 H84        32.2715   24.8851   -1.5257 H         1 UNK         0.0748 
     85 H85        32.1915   26.4969   -0.8678 H         1 UNK         0.0748 
     86 H86        30.2261   27.5098    0.1534 H         1 UNK         0.0940 
     87 H87        28.8379   26.5426    0.5804 H         1 UNK         0.0940 
     88 H88        29.0264   28.3570   -1.8805 H         1 UNK         0.0703 
     89 H89        27.1240   26.3231   -1.2429 H         1 UNK         0.3081 
     90 H90        24.3282   27.5651   -2.8689 H         1 UNK         0.0719 
     91 H91        26.1625   25.4282   -4.0910 H         1 UNK         0.0809 
     92 H92        24.4353   25.6092   -4.3974 H         1 UNK         0.0809 
     93 H93        25.5571   26.8480   -4.9347 H         1 UNK         0.0809 
     94 H94        24.8585   24.9226   -2.0127 H         1 UNK         0.2990 
     95 H95        24.4817   25.3420    1.4953 H         1 UNK         0.0690 
     96 H96        22.7559   23.6018    1.0796 H         1 UNK         0.0788 
     97 H97        22.6933   24.0430   -0.6262 H         1 UNK         0.0788 
     98 H98        22.1914   25.1940    0.5996 H         1 UNK         0.0788 
     99 H99        25.9889   23.8245    1.1350 H         1 UNK         0.2993 
    100 H100       26.3902   21.0999   -0.7061 H         1 UNK         0.0949 
    101 H101       28.0975   23.3686   -1.8646 H         1 UNK         0.0767 
    102 H102       28.5805   21.6739   -1.8028 H         1 UNK         0.0767 
    103 H103       27.2067   22.1624   -2.7792 H         1 UNK         0.0767 
    104 H104       28.3334   22.9034    0.5802 H         1 UNK         0.3013 
    105 H105       26.1721   28.4438    0.0957 H         1 UNK         0.3121 
    106 H106       25.2206   29.8843    1.4331 H         1 UNK         0.0774 
    107 H107       25.6744   32.3006    1.2447 H         1 UNK         0.0815 
    108 H108       27.2192   31.9996    0.4530 H         1 UNK         0.0815 
    109 H109       25.7128   31.5702   -0.3466 H         1 UNK         0.0815 
    110 H110       27.3282   32.1196    2.6319 H         1 UNK         0.2987 
    111 H111       28.6101   30.4273    4.6562 H         1 UNK         0.0949 
    112 H112       26.6649   32.7067    5.3676 H         1 UNK         0.0806 
    113 H113       26.3939   30.9955    5.6947 H         1 UNK         0.0806 
    114 H114       27.6946   31.8503    6.5080 H         1 UNK         0.0806 
    115 H115       30.3760   31.5167    5.6562 H         1 UNK         0.3010 
    116 H116       31.1706   34.1810    5.0731 H         1 UNK         0.0829 
    117 H117       31.7478   33.2351    2.8244 H         1 UNK         0.0813 
    118 H118       33.2281   33.5303    3.7125 H         1 UNK         0.0813 
    119 H119       32.6008   31.8930    3.5778 H         1 UNK         0.0813 
    120 H120       33.4920   34.4320    5.9387 H         1 UNK         0.3038 
    121 H121       33.6520   33.3378    8.5682 H         1 UNK         0.0769 
    122 H122       35.7096   34.9346    6.9460 H         1 UNK         0.0811 
    123 H123       35.7696   34.6599    8.6809 H         1 UNK         0.0811 
    124 H124       34.4652   35.6138    7.9972 H         1 UNK         0.0811 
    125 H125       34.9562   32.1857    5.5358 H         1 UNK         0.3204 
    126 H126       35.9653   29.7870    6.7724 H         1 UNK         0.0748 
    127 H127       38.2202   29.9435    5.6645 H         1 UNK         0.0771 
    128 H128       37.8659   31.5849    5.1377 H         1 UNK         0.0771 
    129 H129       38.0390   31.2216    6.8535 H         1 UNK         0.0771 
    130 H130       36.2581   28.1362    5.1021 H         1 UNK         0.2980 
    131 H131       34.2959   28.3715    3.0211 H         1 UNK         0.0545 
    132 H132       37.6349   29.2943    2.8769 H         1 UNK         0.3459 
    133 H133       37.7537   29.2425    1.1358 H         1 UNK         0.3459 
    134 H134       36.2364   26.0827    3.5689 H         1 UNK         0.0616 
    135 H135       34.8610   25.9940    2.5099 H         1 UNK         0.0616 
    136 H136       32.3180   27.1627    3.9028 H         1 UNK         0.0634 
    137 H137       31.8069   25.8682    4.9533 H         1 UNK         0.0634 
@<TRIPOS>BOND
     1    1    2 1    
     2    1   72 1    
     3    1   73 1    
     4    1   74 1    
     5    2    3 2    
     6    2    4 am   BACKBONE|DICT|INTERRES
     7    4    5 1    
     8    4   75 1    
     9    5    6 1    
    10    5   35 1    
    11    5   76 1    
    12    6    7 1    
    13    6   77 1    
    14    6   78 1    
    15    7    8 1    
    16    8    9 1    
    17    8   79 1    
    18    8   80 1    
    19    9   10 ar   
    20    9   14 ar   
    21   10   11 ar   
    22   10   81 1    
    23   11   12 ar   
    24   11   71 1    
    25   12   13 ar   
    26   12   82 1    
    27   13   14 ar   
    28   13   15 1    
    29   14   83 1    
    30   15   16 1    
    31   15   84 1    
    32   15   85 1    
    33   16   17 1    
    34   17   18 1    
    35   17   86 1    
    36   17   87 1    
    37   18   19 1    
    38   18   37 1    
    39   18   88 1    
    40   19   20 am   BACKBONE|DICT|INTERRES
    41   19   89 1    
    42   20   21 2    
    43   20   22 1    
    44   22   23 1    
    45   22   24 1    
    46   22   90 1    
    47   23   91 1    
    48   23   92 1    
    49   23   93 1    
    50   24   25 am   BACKBONE|DICT|INTERRES
    51   24   94 1    
    52   25   26 2    
    53   25   27 1    
    54   27   28 1    
    55   27   29 1    
    56   27   95 1    
    57   28   96 1    
    58   28   97 1    
    59   28   98 1    
    60   29   30 am   BACKBONE|DICT|INTERRES
    61   29   99 1    
    62   30   31 2    
    63   30   32 1    
    64   32   33 1    
    65   32   34 1    
    66   32  100 1    
    67   33  101 1    
    68   33  102 1    
    69   33  103 1    
    70   34   35 am   BACKBONE|DICT|INTERRES
    71   34  104 1    
    72   35   36 2    
    73   37   38 2    
    74   37   39 am   BACKBONE|DICT|INTERRES
    75   39   40 1    
    76   39  105 1    
    77   40   41 1    
    78   40   42 1    
    79   40  106 1    
    80   41  107 1    
    81   41  108 1    
    82   41  109 1    
    83   42   43 2    
    84   42   44 am   BACKBONE|DICT|INTERRES
    85   44   45 1    
    86   44  110 1    
    87   45   46 1    
    88   45   47 1    
    89   45  111 1    
    90   46  112 1    
    91   46  113 1    
    92   46  114 1    
    93   47   48 2    
    94   47   49 am   BACKBONE|DICT|INTERRES
    95   49   50 1    
    96   49  115 1    
    97   50   51 1    
    98   50   52 1    
    99   50  116 1    
   100   51  117 1    
   101   51  118 1    
   102   51  119 1    
   103   52   53 2    
   104   52   54 am   BACKBONE|DICT|INTERRES
   105   54   55 1    
   106   54  120 1    
   107   55   56 1    
   108   55   57 1    
   109   55  121 1    
   110   56  122 1    
   111   56  123 1    
   112   56  124 1    
   113   57   58 2    
   114   57   59 am   BACKBONE|DICT|INTERRES
   115   59   60 1    
   116   59  125 1    
   117   60   61 1    
   118   60   62 1    
   119   60  126 1    
   120   61  127 1    
   121   61  128 1    
   122   61  129 1    
   123   62   63 2    
   124   62   64 am   BACKBONE|DICT|INTERRES
   125   64   65 1    
   126   64  130 1    
   127   65   66 1    
   128   65   69 1    
   129   65  131 1    
   130   66   67 am   BACKBONE|DICT|INTERRES
   131   66   68 2    
   132   67  132 1    
   133   67  133 1    
   134   69   70 1    
   135   69  134 1    
   136   69  135 1    
   137   70   71 1    
   138   71  136 1    
   139   71  137 1    
@<TRIPOS>SUBSTRUCTURE
     1 UNK         1 GROUP             0       ****    0 ROOT    
