@<TRIPOS>MOLECULE
3R136
137   139    1
SMALL
USER_CHARGES


@<TRIPOS>ATOM
      1 CA         28.4918   22.9918   -5.3165 C.3       0 UNK        -0.1979 
      2 C          28.2400   23.9430   -4.1560 C.2       0 UNK         0.4864 
      3 O          27.2474   24.6715   -4.1665 O.2       0 UNK        -0.5359 
      4 N          29.1325   23.9428   -3.1570 N.am      1 UNK        -0.4318 
      5 CA         29.0411   24.7696   -1.9471 C.3       1 UNK         0.0824 
      6 C6         30.4160   24.9175   -1.2467 C.3       12 UNK        -0.0944 
      7 S7         31.1863   23.3219   -0.8019 S.3       12 UNK        -0.2672 
      8 C8         32.3524   23.8410    0.5008 C.3       12 UNK         0.0333 
      9 C9         31.7468   24.1188    1.8797 C.ar      12 UNK        -0.0807 
     10 C10        32.5058   24.8647    2.7889 C.ar      12 UNK        -0.0894 
     11 C11        32.0548   25.0853    4.0927 C.ar      12 UNK        -0.0804 
     12 C12        30.8267   24.5515    4.4883 C.ar      12 UNK        -0.0824 
     13 C13        30.0405   23.8242    3.5920 C.ar      12 UNK        -0.0762 
     14 C14        30.5052   23.6063    2.2895 C.ar      12 UNK        -0.0782 
     15 C15        28.7139   23.2396    4.0631 C.3       12 UNK         0.0230 
     16 S16        27.2596   24.1657    3.4709 S.3       12 UNK        -0.2608 
     17 C17        27.5955   25.8871    4.0002 C.3       12 UNK        -0.0989 
     18 CA         27.8746   26.7856    2.7665 C.3       5 UNK         0.0716 
     19 N          26.7352   26.8235    1.8405 N.am      5 UNK        -0.4135 
     20 C          25.5646   27.4577    2.0041 C.2       4 UNK         0.5031 
     21 O          25.3016   28.2083    2.9442 O.2       4 UNK        -0.5229 
     22 CA         24.4941   27.1775    0.9375 C.3       4 UNK         0.0329 
     23 CB         24.9238   27.6956   -0.4461 C.3       4 UNK        -0.2001 
     24 N          24.1921   25.7478    0.8618 N.am      4 UNK        -0.4303 
     25 C          23.5151   25.0583    1.7900 C.2       3 UNK         0.5044 
     26 O          22.9661   25.5813    2.7605 O.2       3 UNK        -0.5152 
     27 CA         23.4438   23.5265    1.6379 C.3       3 UNK         0.0319 
     28 CB         22.2440   23.1004    0.7687 C.3       3 UNK        -0.2001 
     29 N          24.7008   22.9057    1.1932 N.am      3 UNK        -0.4354 
     30 C          25.2986   22.9862   -0.0031 C.2       2 UNK         0.4964 
     31 O          24.8183   23.5647   -0.9803 O.2       2 UNK        -0.5047 
     32 CA         26.6769   22.3107   -0.1081 C.3       2 UNK         0.0288 
     33 CB         26.5250   20.8488   -0.5583 C.3       2 UNK        -0.2113 
     34 N          27.6000   22.9943   -1.0183 N.am      2 UNK        -0.4145 
     35 C          27.9666   24.2842   -0.9522 C.2       1 UNK         0.5006 
     36 O          27.5196   25.0857   -0.1319 O.2       1 UNK        -0.5103 
     37 C          28.4258   28.1904    3.1033 C.2       5 UNK         0.5055 
     38 O          28.8447   28.4464    4.2327 O.2       5 UNK        -0.5220 
     39 N          28.4205   29.0741    2.0945 N.am      6 UNK        -0.4450 
     40 CA         28.9436   30.4419    2.1565 C.3       6 UNK         0.0367 
     41 CB         28.0233   31.3579    1.3324 C.3       6 UNK        -0.1929 
     42 C          30.3953   30.5422    1.6509 C.2       6 UNK         0.5070 
     43 O          30.9794   31.6260    1.7178 O.2       6 UNK        -0.5237 
     44 N          30.9488   29.4306    1.1435 N.am      7 UNK        -0.4739 
     45 CA         32.3058   29.3085    0.6036 C.3       7 UNK         0.0276 
     46 CB         32.5205   27.8628    0.1288 C.3       7 UNK        -0.1927 
     47 C          33.3935   29.7066    1.6153 C.2       7 UNK         0.5013 
     48 O          33.2114   29.5057    2.8172 O.2       7 UNK        -0.5193 
     49 N          34.4978   30.2687    1.1023 N.am      8 UNK        -0.4253 
     50 CA         35.6361   30.8090    1.8597 C.3       8 UNK         0.0242 
     51 CB         36.4260   29.6728    2.5459 C.3       8 UNK        -0.2000 
     52 C          35.2230   31.9301    2.8366 C.2       8 UNK         0.4948 
     53 O          35.7034   31.9622    3.9705 O.2       8 UNK        -0.5275 
     54 N          34.3197   32.8118    2.3755 N.am      9 UNK        -0.4246 
     55 CA         33.7099   33.9272    3.1124 C.3       9 UNK         0.0261 
     56 CB         34.7509   35.0360    3.3790 C.3       9 UNK        -0.1959 
     57 C          32.9930   33.4514    4.3911 C.2       9 UNK         0.5033 
     58 O          33.2928   33.9350    5.4848 O.2       9 UNK        -0.5390 
     59 N          32.0778   32.4872    4.2145 N.am      10 UNK        -0.4215 
     60 CA         31.3529   31.7519    5.2560 C.3       10 UNK         0.0240 
     61 CB         30.3826   32.6764    6.0223 C.3       10 UNK        -0.1982 
     62 C          32.2993   30.9529    6.1718 C.2       10 UNK         0.4970 
     63 O          32.2209   31.0679    7.3970 O.2       10 UNK        -0.4916 
     64 N          33.1562   30.1387    5.5430 N.am      11 UNK        -0.4279 
     65 CA         34.0536   29.1606    6.1746 C.3       11 UNK         0.1003 
     66 C          35.1658   29.7980    7.0582 C.2       11 UNK         0.5709 
     67 N          35.7438   30.9225    6.6558 N.am      11 UNK        -0.7358 
     68 O          35.5270   29.2697    8.1080 O.2       11 UNK        -0.4999 
     69 C69        33.2834   28.0048    6.8797 C.3       12 UNK        -0.0954 
     70 S70        31.9995   27.2536    5.8211 S.3       12 UNK        -0.2268 
     71 C71        32.9103   25.8621    5.0859 C.3       12 UNK         0.0203 
     72 H72        27.6601   22.2952   -5.4179 H         1 UNK         0.0888 
     73 H73        28.5833   23.5515   -6.2470 H         1 UNK         0.0888 
     74 H74        29.4047   22.4124   -5.1788 H         1 UNK         0.0888 
     75 H75        29.9366   23.3315   -3.2001 H         1 UNK         0.3017 
     76 H76        28.7302   25.7695   -2.2586 H         1 UNK         0.0873 
     77 H77        31.1049   25.4502   -1.9039 H         1 UNK         0.0745 
     78 H78        30.3232   25.5356   -0.3510 H         1 UNK         0.0745 
     79 H79        32.8942   24.7197    0.1471 H         1 UNK         0.0705 
     80 H80        33.0960   23.0515    0.6165 H         1 UNK         0.0705 
     81 H81        33.4679   25.2558    2.4863 H         1 UNK         0.1334 
     82 H82        30.4827   24.7075    5.5017 H         1 UNK         0.1417 
     83 H83        29.9027   23.0191    1.6110 H         1 UNK         0.1562 
     84 H84        28.6800   23.1962    5.1529 H         1 UNK         0.0748 
     85 H85        28.6335   22.2072    3.7199 H         1 UNK         0.0748 
     86 H86        28.4319   25.9012    4.6992 H         1 UNK         0.0940 
     87 H87        26.7346   26.2601    4.5572 H         1 UNK         0.0940 
     88 H88        28.6830   26.3090    2.2087 H         1 UNK         0.0703 
     89 H89        26.8464   26.2071    1.0349 H         1 UNK         0.3081 
     90 H90        23.5843   27.7076    1.2275 H         1 UNK         0.0719 
     91 H91        25.7932   27.1634   -0.8340 H         1 UNK         0.0809 
     92 H92        24.1188   27.5864   -1.1730 H         1 UNK         0.0809 
     93 H93        25.1790   28.7554   -0.4043 H         1 UNK         0.0809 
     94 H94        24.5907   25.2234    0.0891 H         1 UNK         0.2990 
     95 H95        23.2708   23.1284    2.6392 H         1 UNK         0.0690 
     96 H96        22.1705   22.0152    0.6981 H         1 UNK         0.0788 
     97 H97        22.3060   23.5000   -0.2437 H         1 UNK         0.0788 
     98 H98        21.3088   23.4616    1.1986 H         1 UNK         0.0788 
     99 H99        25.2054   22.4280    1.9277 H         1 UNK         0.2993 
    100 H100       27.1419   22.3261    0.8800 H         1 UNK         0.0949 
    101 H101       27.4850   20.3320   -0.5638 H         1 UNK         0.0767 
    102 H102       25.8665   20.2968    0.1140 H         1 UNK         0.0767 
    103 H103       26.0992   20.7799   -1.5605 H         1 UNK         0.0767 
    104 H104       28.0166   22.4299   -1.7428 H         1 UNK         0.3013 
    105 H105       28.0352   28.7792    1.2085 H         1 UNK         0.3121 
    106 H106       28.9306   30.7938    3.1898 H         1 UNK         0.0774 
    107 H107       28.3505   32.3970    1.3923 H         1 UNK         0.0815 
    108 H108       28.0130   31.0801    0.2778 H         1 UNK         0.0815 
    109 H109       26.9975   31.3223    1.6999 H         1 UNK         0.0815 
    110 H110       30.4034   28.5837    1.1742 H         1 UNK         0.2987 
    111 H111       32.3738   29.9769   -0.2573 H         1 UNK         0.0949 
    112 H112       33.5257   27.7222   -0.2709 H         1 UNK         0.0806 
    113 H113       32.3917   27.1516    0.9451 H         1 UNK         0.0806 
    114 H114       31.8205   27.5990   -0.6635 H         1 UNK         0.0806 
    115 H115       34.5542   30.3793    0.0988 H         1 UNK         0.3010 
    116 H116       36.3007   31.2758    1.1310 H         1 UNK         0.0829 
    117 H117       36.7321   28.9127    1.8275 H         1 UNK         0.0813 
    118 H118       37.3321   30.0554    3.0173 H         1 UNK         0.0813 
    119 H119       35.8400   29.1821    3.3227 H         1 UNK         0.0813 
    120 H120       33.9693   32.6705    1.4382 H         1 UNK         0.3038 
    121 H121       32.9388   34.3468    2.4641 H         1 UNK         0.0769 
    122 H122       34.2849   35.9027    3.8493 H         1 UNK         0.0811 
    123 H123       35.2118   35.3787    2.4528 H         1 UNK         0.0811 
    124 H124       35.5459   34.6951    4.0432 H         1 UNK         0.0811 
    125 H125       31.8902   32.1775    3.2619 H         1 UNK         0.3204 
    126 H126       30.7487   31.0060    4.7386 H         1 UNK         0.0748 
    127 H127       29.7673   32.1026    6.7165 H         1 UNK         0.0771 
    128 H128       30.9120   33.4301    6.6057 H         1 UNK         0.0771 
    129 H129       29.7064   33.1923    5.3407 H         1 UNK         0.0771 
    130 H130       33.1376   30.0897    4.5257 H         1 UNK         0.2980 
    131 H131       34.5964   28.7039    5.3473 H         1 UNK         0.0545 
    132 H132       36.4636   31.3359    7.2255 H         1 UNK         0.3459 
    133 H133       35.5187   31.3342    5.7531 H         1 UNK         0.3459 
    134 H134       33.9745   27.2252    7.2045 H         1 UNK         0.0616 
    135 H135       32.7962   28.3718    7.7844 H         1 UNK         0.0616 
    136 H136       33.2409   25.1874    5.8766 H         1 UNK         0.0634 
    137 H137       33.8087   26.2492    4.6024 H         1 UNK         0.0634 
@<TRIPOS>BOND
     1    1    2 1    
     2    1   72 1    
     3    1   73 1    
     4    1   74 1    
     5    2    3 2    
     6    2    4 am   BACKBONE|DICT|INTERRES
     7    4    5 1    
     8    4   75 1    
     9    5    6 1    
    10    5   35 1    
    11    5   76 1    
    12    6    7 1    
    13    6   77 1    
    14    6   78 1    
    15    7    8 1    
    16    8    9 1    
    17    8   79 1    
    18    8   80 1    
    19    9   10 ar   
    20    9   14 ar   
    21   10   11 ar   
    22   10   81 1    
    23   11   12 ar   
    24   11   71 1    
    25   12   13 ar   
    26   12   82 1    
    27   13   14 ar   
    28   13   15 1    
    29   14   83 1    
    30   15   16 1    
    31   15   84 1    
    32   15   85 1    
    33   16   17 1    
    34   17   18 1    
    35   17   86 1    
    36   17   87 1    
    37   18   19 1    
    38   18   37 1    
    39   18   88 1    
    40   19   20 am   BACKBONE|DICT|INTERRES
    41   19   89 1    
    42   20   21 2    
    43   20   22 1    
    44   22   23 1    
    45   22   24 1    
    46   22   90 1    
    47   23   91 1    
    48   23   92 1    
    49   23   93 1    
    50   24   25 am   BACKBONE|DICT|INTERRES
    51   24   94 1    
    52   25   26 2    
    53   25   27 1    
    54   27   28 1    
    55   27   29 1    
    56   27   95 1    
    57   28   96 1    
    58   28   97 1    
    59   28   98 1    
    60   29   30 am   BACKBONE|DICT|INTERRES
    61   29   99 1    
    62   30   31 2    
    63   30   32 1    
    64   32   33 1    
    65   32   34 1    
    66   32  100 1    
    67   33  101 1    
    68   33  102 1    
    69   33  103 1    
    70   34   35 am   BACKBONE|DICT|INTERRES
    71   34  104 1    
    72   35   36 2    
    73   37   38 2    
    74   37   39 am   BACKBONE|DICT|INTERRES
    75   39   40 1    
    76   39  105 1    
    77   40   41 1    
    78   40   42 1    
    79   40  106 1    
    80   41  107 1    
    81   41  108 1    
    82   41  109 1    
    83   42   43 2    
    84   42   44 am   BACKBONE|DICT|INTERRES
    85   44   45 1    
    86   44  110 1    
    87   45   46 1    
    88   45   47 1    
    89   45  111 1    
    90   46  112 1    
    91   46  113 1    
    92   46  114 1    
    93   47   48 2    
    94   47   49 am   BACKBONE|DICT|INTERRES
    95   49   50 1    
    96   49  115 1    
    97   50   51 1    
    98   50   52 1    
    99   50  116 1    
   100   51  117 1    
   101   51  118 1    
   102   51  119 1    
   103   52   53 2    
   104   52   54 am   BACKBONE|DICT|INTERRES
   105   54   55 1    
   106   54  120 1    
   107   55   56 1    
   108   55   57 1    
   109   55  121 1    
   110   56  122 1    
   111   56  123 1    
   112   56  124 1    
   113   57   58 2    
   114   57   59 am   BACKBONE|DICT|INTERRES
   115   59   60 1    
   116   59  125 1    
   117   60   61 1    
   118   60   62 1    
   119   60  126 1    
   120   61  127 1    
   121   61  128 1    
   122   61  129 1    
   123   62   63 2    
   124   62   64 am   BACKBONE|DICT|INTERRES
   125   64   65 1    
   126   64  130 1    
   127   65   66 1    
   128   65   69 1    
   129   65  131 1    
   130   66   67 am   BACKBONE|DICT|INTERRES
   131   66   68 2    
   132   67  132 1    
   133   67  133 1    
   134   69   70 1    
   135   69  134 1    
   136   69  135 1    
   137   70   71 1    
   138   71  136 1    
   139   71  137 1    
@<TRIPOS>SUBSTRUCTURE
     1 UNK         1 GROUP             0       ****    0 ROOT    
