@<TRIPOS>MOLECULE
3R136
137   139    1
SMALL
USER_CHARGES


@<TRIPOS>ATOM
      1 CA         31.9977   22.5884    5.7967 C.3       0 UNK        -0.1979 
      2 C          30.6242   22.9430    5.2525 C.2       0 UNK         0.4864 
      3 O          29.6744   23.0684    6.0262 O.2       0 UNK        -0.5359 
      4 N          30.5081   23.0916    3.9270 N.am      1 UNK        -0.4318 
      5 CA         29.2480   23.3563    3.2283 C.3       1 UNK         0.0824 
      6 C6         29.3190   23.0249    1.7142 C.3       12 UNK        -0.0944 
      7 S7         30.1224   21.4248    1.3468 S.3       12 UNK        -0.2672 
      8 C8         31.2481   21.8560   -0.0241 C.3       12 UNK         0.0333 
      9 C9         32.2737   22.9205    0.3515 C.ar      12 UNK        -0.0807 
     10 C10        33.3549   22.6057    1.1804 C.ar      12 UNK        -0.0894 
     11 C11        34.3047   23.5798    1.5076 C.ar      12 UNK        -0.0804 
     12 C12        34.1695   24.8735    0.9967 C.ar      12 UNK        -0.0824 
     13 C13        33.0858   25.2059    0.1801 C.ar      12 UNK        -0.0762 
     14 C14        32.1477   24.2219   -0.1457 C.ar      12 UNK        -0.0782 
     15 C15        32.9008   26.6429   -0.2870 C.3       12 UNK         0.0230 
     16 S16        32.7060   26.8045   -2.0909 S.3       12 UNK        -0.2608 
     17 C17        32.2942   28.5829   -2.1939 C.3       12 UNK        -0.0989 
     18 CA         30.8124   28.8724   -2.5579 C.3       5 UNK         0.0716 
     19 N          29.8733   28.0653   -1.7612 N.am      5 UNK        -0.4135 
     20 C          28.5551   27.9443   -1.9776 C.2       4 UNK         0.5031 
     21 O          27.9438   28.5633   -2.8487 O.2       4 UNK        -0.5229 
     22 CA         27.7982   26.9468   -1.0847 C.3       4 UNK         0.0329 
     23 CB         28.6535   25.7374   -0.6619 C.3       4 UNK        -0.2001 
     24 N          27.2867   27.6040    0.1158 N.am      4 UNK        -0.4303 
     25 C          26.0803   28.1750    0.2354 C.2       3 UNK         0.5044 
     26 O          25.2622   28.2392   -0.6846 O.2       3 UNK        -0.5152 
     27 CA         25.7167   28.7503    1.6247 C.3       3 UNK         0.0319 
     28 CB         24.1933   28.8069    1.8649 C.3       3 UNK        -0.2001 
     29 N          26.3896   28.0908    2.7543 N.am      3 UNK        -0.4354 
     30 C          26.3265   26.7950    3.0917 C.2       2 UNK         0.4964 
     31 O          25.6684   25.9480    2.4832 O.2       2 UNK        -0.5047 
     32 CA         27.1244   26.3760    4.3360 C.3       2 UNK         0.0288 
     33 CB         26.2203   26.3560    5.5788 C.3       2 UNK        -0.2113 
     34 N          27.7108   25.0488    4.1434 N.am      2 UNK        -0.4145 
     35 C          28.8279   24.8231    3.4418 C.2       1 UNK         0.5006 
     36 O          29.5308   25.7232    2.9733 O.2       1 UNK        -0.5103 
     37 C          30.5483   30.3928   -2.4639 C.2       5 UNK         0.5055 
     38 O          30.9466   31.1400   -3.3587 O.2       5 UNK        -0.5220 
     39 N          29.9027   30.8154   -1.3747 N.am      6 UNK        -0.4450 
     40 CA         29.4767   32.1694   -1.0548 C.3       6 UNK         0.0367 
     41 CB         30.6127   32.9090   -0.3248 C.3       6 UNK        -0.1929 
     42 C          28.2297   32.0374   -0.1717 C.2       6 UNK         0.5070 
     43 O          27.9104   30.9265    0.2585 O.2       6 UNK        -0.5237 
     44 N          27.5582   33.1627    0.1055 N.am      7 UNK        -0.4739 
     45 CA         26.3233   33.2250    0.9016 C.3       7 UNK         0.0276 
     46 CB         25.7858   34.6652    0.8936 C.3       7 UNK        -0.1927 
     47 C          26.4634   32.7104    2.3478 C.2       7 UNK         0.5013 
     48 O          25.4854   32.2069    2.9011 O.2       7 UNK        -0.5193 
     49 N          27.6685   32.8333    2.9190 N.am      8 UNK        -0.4253 
     50 CA         28.0460   32.2311    4.1959 C.3       8 UNK         0.0242 
     51 CB         29.0068   33.1668    4.9535 C.3       8 UNK        -0.2000 
     52 C          28.6571   30.8436    3.9514 C.2       8 UNK         0.4948 
     53 O          28.0226   29.8376    4.2739 O.2       8 UNK        -0.5275 
     54 N          29.8666   30.8224    3.3682 N.am      9 UNK        -0.4246 
     55 CA         30.7129   29.6454    3.1361 C.3       9 UNK         0.0261 
     56 CB         30.0818   28.7059    2.0877 C.3       9 UNK        -0.1959 
     57 C          31.1040   28.9737    4.4696 C.2       9 UNK         0.5033 
     58 O          31.5987   29.6846    5.3466 O.2       9 UNK        -0.5390 
     59 N          30.8876   27.6544    4.6021 N.am      10 UNK        -0.4215 
     60 CA         31.1546   26.8218    5.7825 C.3       10 UNK         0.0240 
     61 CB         30.2146   27.2029    6.9463 C.3       10 UNK        -0.1982 
     62 C          32.6410   26.8257    6.1863 C.2       10 UNK         0.4970 
     63 O          33.0089   27.4470    7.1857 O.2       10 UNK        -0.4916 
     64 N          33.4676   26.1480    5.3777 N.am      11 UNK        -0.4279 
     65 CA         34.9184   25.9990    5.5802 C.3       11 UNK         0.1003 
     66 C          35.3291   25.3665    6.9444 C.2       11 UNK         0.5709 
     67 N          36.5341   25.6537    7.4192 N.am      11 UNK        -0.7358 
     68 O          34.5876   24.5997    7.5566 O.2       11 UNK        -0.4999 
     69 C69        35.5879   25.2800    4.3767 C.3       12 UNK        -0.0954 
     70 S70        35.0846   23.5358    4.1605 S.3       12 UNK        -0.2268 
     71 C71        35.4778   23.2328    2.4109 C.3       12 UNK         0.0203 
     72 H72        32.4923   23.4763    6.1876 H         1 UNK         0.0888 
     73 H73        31.9087   21.8652    6.6068 H         1 UNK         0.0888 
     74 H74        32.6297   22.1475    5.0266 H         1 UNK         0.0888 
     75 H75        31.3166   22.9874    3.3303 H         1 UNK         0.3017 
     76 H76        28.4868   22.7065    3.6659 H         1 UNK         0.0873 
     77 H77        28.3127   23.0002    1.2926 H         1 UNK         0.0745 
     78 H78        29.8434   23.8135    1.1781 H         1 UNK         0.0745 
     79 H79        31.7707   20.9536   -0.3444 H         1 UNK         0.0705 
     80 H80        30.6529   22.1796   -0.8796 H         1 UNK         0.0705 
     81 H81        33.4555   21.6019    1.5707 H         1 UNK         0.1334 
     82 H82        34.9019   25.6276    1.2477 H         1 UNK         0.1417 
     83 H83        31.3130   24.4733   -0.7840 H         1 UNK         0.1562 
     84 H84        33.7420   27.2623    0.0286 H         1 UNK         0.0748 
     85 H85        32.0188   27.0475    0.2051 H         1 UNK         0.0748 
     86 H86        32.9509   29.0286   -2.9440 H         1 UNK         0.0940 
     87 H87        32.5612   29.0664   -1.2515 H         1 UNK         0.0940 
     88 H88        30.6623   28.5891   -3.6019 H         1 UNK         0.0703 
     89 H89        30.2937   27.4789   -1.0585 H         1 UNK         0.3081 
     90 H90        26.9625   26.5620   -1.6734 H         1 UNK         0.0719 
     91 H91        29.4411   26.0069    0.0426 H         1 UNK         0.0809 
     92 H92        28.0305   24.9836   -0.1810 H         1 UNK         0.0809 
     93 H93        29.1178   25.2613   -1.5267 H         1 UNK         0.0809 
     94 H94        27.8869   27.6098    0.9258 H         1 UNK         0.2990 
     95 H95        26.0786   29.7771    1.6283 H         1 UNK         0.0690 
     96 H96        23.9635   29.2501    2.8339 H         1 UNK         0.0788 
     97 H97        23.7410   27.8154    1.8304 H         1 UNK         0.0788 
     98 H98        23.6996   29.4185    1.1087 H         1 UNK         0.0788 
     99 H99        26.9569   28.7104    3.3350 H         1 UNK         0.2993 
    100 H100       27.9264   27.0979    4.5055 H         1 UNK         0.0949 
    101 H101       26.7768   26.0632    6.4694 H         1 UNK         0.0767 
    102 H102       25.8013   27.3451    5.7694 H         1 UNK         0.0767 
    103 H103       25.3853   25.6640    5.4609 H         1 UNK         0.0767 
    104 H104       27.1776   24.2644    4.4893 H         1 UNK         0.3013 
    105 H105       29.5086   30.1285   -0.7433 H         1 UNK         0.3121 
    106 H106       29.2042   32.6982   -1.9705 H         1 UNK         0.0774 
    107 H107       30.8853   32.4096    0.6056 H         1 UNK         0.0815 
    108 H108       30.3268   33.9321   -0.0786 H         1 UNK         0.0815 
    109 H109       31.5074   32.9672   -0.9449 H         1 UNK         0.0815 
    110 H110       27.8888   34.0346   -0.2840 H         1 UNK         0.2987 
    111 H111       25.5882   32.5839    0.4095 H         1 UNK         0.0949 
    112 H112       26.4929   35.3631    1.3437 H         1 UNK         0.0806 
    113 H113       25.5746   35.0057   -0.1203 H         1 UNK         0.0806 
    114 H114       24.8541   34.7372    1.4569 H         1 UNK         0.0806 
    115 H115       28.4037   33.2537    2.3704 H         1 UNK         0.3010 
    116 H116       27.1600   32.0943    4.8203 H         1 UNK         0.0829 
    117 H117       29.8843   33.4335    4.3639 H         1 UNK         0.0813 
    118 H118       28.5063   34.0936    5.2346 H         1 UNK         0.0813 
    119 H119       29.3597   32.7000    5.8744 H         1 UNK         0.0813 
    120 H120       30.3109   31.7092    3.1831 H         1 UNK         0.3038 
    121 H121       31.6455   30.0201    2.7114 H         1 UNK         0.0769 
    122 H122       30.7403   27.8684    1.8643 H         1 UNK         0.0811 
    123 H123       29.1324   28.2982    2.4269 H         1 UNK         0.0811 
    124 H124       29.9011   29.2336    1.1530 H         1 UNK         0.0811 
    125 H125       30.4705   27.1523    3.8210 H         1 UNK         0.3204 
    126 H126       30.9089   25.7996    5.4987 H         1 UNK         0.0748 
    127 H127       30.3684   26.5429    7.8008 H         1 UNK         0.0771 
    128 H128       30.3811   28.2242    7.2899 H         1 UNK         0.0771 
    129 H129       29.1685   27.1159    6.6549 H         1 UNK         0.0771 
    130 H130       33.0882   25.6634    4.5790 H         1 UNK         0.2980 
    131 H131       35.3081   27.0187    5.5937 H         1 UNK         0.0545 
    132 H132       37.1587   26.2706    6.9236 H         1 UNK         0.3459 
    133 H133       36.8241   25.2447    8.2936 H         1 UNK         0.3459 
    134 H134       35.3654   25.8321    3.4646 H         1 UNK         0.0616 
    135 H135       36.6743   25.3076    4.4764 H         1 UNK         0.0616 
    136 H136       35.7361   22.1797    2.2902 H         1 UNK         0.0634 
    137 H137       36.3664   23.7975    2.1247 H         1 UNK         0.0634 
@<TRIPOS>BOND
     1    1    2 1    
     2    1   72 1    
     3    1   73 1    
     4    1   74 1    
     5    2    3 2    
     6    2    4 am   BACKBONE|DICT|INTERRES
     7    4    5 1    
     8    4   75 1    
     9    5    6 1    
    10    5   35 1    
    11    5   76 1    
    12    6    7 1    
    13    6   77 1    
    14    6   78 1    
    15    7    8 1    
    16    8    9 1    
    17    8   79 1    
    18    8   80 1    
    19    9   10 ar   
    20    9   14 ar   
    21   10   11 ar   
    22   10   81 1    
    23   11   12 ar   
    24   11   71 1    
    25   12   13 ar   
    26   12   82 1    
    27   13   14 ar   
    28   13   15 1    
    29   14   83 1    
    30   15   16 1    
    31   15   84 1    
    32   15   85 1    
    33   16   17 1    
    34   17   18 1    
    35   17   86 1    
    36   17   87 1    
    37   18   19 1    
    38   18   37 1    
    39   18   88 1    
    40   19   20 am   BACKBONE|DICT|INTERRES
    41   19   89 1    
    42   20   21 2    
    43   20   22 1    
    44   22   23 1    
    45   22   24 1    
    46   22   90 1    
    47   23   91 1    
    48   23   92 1    
    49   23   93 1    
    50   24   25 am   BACKBONE|DICT|INTERRES
    51   24   94 1    
    52   25   26 2    
    53   25   27 1    
    54   27   28 1    
    55   27   29 1    
    56   27   95 1    
    57   28   96 1    
    58   28   97 1    
    59   28   98 1    
    60   29   30 am   BACKBONE|DICT|INTERRES
    61   29   99 1    
    62   30   31 2    
    63   30   32 1    
    64   32   33 1    
    65   32   34 1    
    66   32  100 1    
    67   33  101 1    
    68   33  102 1    
    69   33  103 1    
    70   34   35 am   BACKBONE|DICT|INTERRES
    71   34  104 1    
    72   35   36 2    
    73   37   38 2    
    74   37   39 am   BACKBONE|DICT|INTERRES
    75   39   40 1    
    76   39  105 1    
    77   40   41 1    
    78   40   42 1    
    79   40  106 1    
    80   41  107 1    
    81   41  108 1    
    82   41  109 1    
    83   42   43 2    
    84   42   44 am   BACKBONE|DICT|INTERRES
    85   44   45 1    
    86   44  110 1    
    87   45   46 1    
    88   45   47 1    
    89   45  111 1    
    90   46  112 1    
    91   46  113 1    
    92   46  114 1    
    93   47   48 2    
    94   47   49 am   BACKBONE|DICT|INTERRES
    95   49   50 1    
    96   49  115 1    
    97   50   51 1    
    98   50   52 1    
    99   50  116 1    
   100   51  117 1    
   101   51  118 1    
   102   51  119 1    
   103   52   53 2    
   104   52   54 am   BACKBONE|DICT|INTERRES
   105   54   55 1    
   106   54  120 1    
   107   55   56 1    
   108   55   57 1    
   109   55  121 1    
   110   56  122 1    
   111   56  123 1    
   112   56  124 1    
   113   57   58 2    
   114   57   59 am   BACKBONE|DICT|INTERRES
   115   59   60 1    
   116   59  125 1    
   117   60   61 1    
   118   60   62 1    
   119   60  126 1    
   120   61  127 1    
   121   61  128 1    
   122   61  129 1    
   123   62   63 2    
   124   62   64 am   BACKBONE|DICT|INTERRES
   125   64   65 1    
   126   64  130 1    
   127   65   66 1    
   128   65   69 1    
   129   65  131 1    
   130   66   67 am   BACKBONE|DICT|INTERRES
   131   66   68 2    
   132   67  132 1    
   133   67  133 1    
   134   69   70 1    
   135   69  134 1    
   136   69  135 1    
   137   70   71 1    
   138   71  136 1    
   139   71  137 1    
@<TRIPOS>SUBSTRUCTURE
     1 UNK         1 GROUP             0       ****    0 ROOT    
