@<TRIPOS>MOLECULE
3R136
137   139    1
SMALL
USER_CHARGES


@<TRIPOS>ATOM
      1 CA         27.0273   22.2492   -0.3992 C.3       0 UNK        -0.1979 
      2 C          28.1244   23.1512   -0.9453 C.2       0 UNK         0.4864 
      3 O          27.8653   23.9518   -1.8454 O.2       0 UNK        -0.5359 
      4 N          29.3448   23.0100   -0.4107 N.am      1 UNK        -0.4318 
      5 CA         30.5909   23.6254   -0.8881 C.3       1 UNK         0.0824 
      6 C6         31.8361   23.1895   -0.0642 C.3       12 UNK        -0.0944 
      7 S7         31.7998   21.4353    0.4537 S.3       12 UNK        -0.2672 
      8 C8         32.6127   21.4798    2.0908 C.3       12 UNK         0.0333 
      9 C9         32.0229   22.4858    3.0805 C.ar      12 UNK        -0.0807 
     10 C10        32.8888   23.2558    3.8644 C.ar      12 UNK        -0.0894 
     11 C11        32.3871   24.1626    4.8010 C.ar      12 UNK        -0.0804 
     12 C12        31.0057   24.3239    4.9273 C.ar      12 UNK        -0.0824 
     13 C13        30.1208   23.5712    4.1488 C.ar      12 UNK        -0.0762 
     14 C14        30.6388   22.6346    3.2431 C.ar      12 UNK        -0.0782 
     15 C15        28.6185   23.7661    4.3493 C.3       12 UNK         0.0230 
     16 S16        27.6386   23.6467    2.8149 S.3       12 UNK        -0.2608 
     17 C17        26.2010   24.7046    3.2100 C.3       12 UNK        -0.0989 
     18 CA         26.2265   25.9796    2.3273 C.3       5 UNK         0.0716 
     19 N          25.9408   25.7119    0.9140 N.am      5 UNK        -0.4135 
     20 C          24.7697   25.3552    0.3648 C.2       4 UNK         0.5031 
     21 O          23.7422   25.1361    1.0079 O.2       4 UNK        -0.5229 
     22 CA         24.7608   25.1935   -1.1702 C.3       4 UNK         0.0329 
     23 CB         23.3751   25.4576   -1.7990 C.3       4 UNK        -0.2001 
     24 N          25.8244   25.9677   -1.8286 N.am      4 UNK        -0.4303 
     25 C          25.9074   27.3033   -1.9230 C.2       3 UNK         0.5044 
     26 O          25.0289   28.0782   -1.5424 O.2       3 UNK        -0.5152 
     27 CA         27.2353   27.8547   -2.4772 C.3       3 UNK         0.0319 
     28 CB         27.1980   29.3832   -2.6839 C.3       3 UNK        -0.2001 
     29 N          28.3890   27.4843   -1.6442 N.am      3 UNK        -0.4354 
     30 C          28.5608   27.7170   -0.3341 C.2       2 UNK         0.4964 
     31 O          27.7169   28.2537    0.3862 O.2       2 UNK        -0.5047 
     32 CA         29.8845   27.2248    0.2778 C.3       2 UNK         0.0288 
     33 CB         30.0381   27.5816    1.7680 C.3       2 UNK        -0.2113 
     34 N          30.0276   25.7776    0.1278 N.am      2 UNK        -0.4145 
     35 C          30.5190   25.1624   -0.9560 C.2       1 UNK         0.5006 
     36 O          30.8822   25.7548   -1.9740 O.2       1 UNK        -0.5103 
     37 C          25.3806   27.1558    2.8543 C.2       5 UNK         0.5055 
     38 O          24.6682   27.0216    3.8515 O.2       5 UNK        -0.5220 
     39 N          25.4848   28.2886    2.1482 N.am      6 UNK        -0.4450 
     40 CA         24.7939   29.5425    2.4448 C.3       6 UNK         0.0367 
     41 CB         23.6310   29.7201    1.4542 C.3       6 UNK        -0.1929 
     42 C          25.7305   30.7626    2.4032 C.2       6 UNK         0.5070 
     43 O          25.3925   31.7806    3.0092 O.2       6 UNK        -0.5237 
     44 N          26.8701   30.6745    1.7009 N.am      7 UNK        -0.4739 
     45 CA         27.8538   31.7555    1.6041 C.3       7 UNK         0.0276 
     46 CB         28.6787   31.5773    0.3185 C.3       7 UNK        -0.1927 
     47 C          28.7863   31.7846    2.8239 C.2       7 UNK         0.5013 
     48 O          29.0529   30.7423    3.4279 O.2       7 UNK        -0.5193 
     49 N          29.3290   32.9718    3.1202 N.am      8 UNK        -0.4253 
     50 CA         30.3598   33.1931    4.1370 C.3       8 UNK         0.0242 
     51 CB         30.2713   34.6496    4.6314 C.3       8 UNK        -0.2000 
     52 C          31.7522   32.8375    3.5803 C.2       8 UNK         0.4948 
     53 O          32.5928   33.7213    3.3990 O.2       8 UNK        -0.5275 
     54 N          31.9505   31.5498    3.2741 N.am      9 UNK        -0.4246 
     55 CA         33.1994   30.9879    2.7570 C.3       9 UNK         0.0261 
     56 CB         32.9189   29.5809    2.2070 C.3       9 UNK        -0.1959 
     57 C          34.3007   30.9316    3.8283 C.2       9 UNK         0.5033 
     58 O          34.0073   30.9492    5.0277 O.2       9 UNK        -0.5390 
     59 N          35.5544   30.8098    3.3734 N.am      10 UNK        -0.4215 
     60 CA         36.7616   30.7032    4.1997 C.3       10 UNK         0.0240 
     61 CB         37.9837   31.0944    3.3466 C.3       10 UNK        -0.1982 
     62 C          36.9182   29.3167    4.8623 C.2       10 UNK         0.4970 
     63 O          37.9482   28.6615    4.6927 O.2       10 UNK        -0.4916 
     64 N          35.8914   28.8982    5.6088 N.am      11 UNK        -0.4279 
     65 CA         35.8633   27.6700    6.4167 C.3       11 UNK         0.1003 
     66 C          36.7464   27.7276    7.6989 C.2       11 UNK         0.5709 
     67 N          37.2199   28.8891    8.1362 N.am      11 UNK        -0.7358 
     68 O          37.0139   26.6923    8.3044 O.2       11 UNK        -0.4999 
     69 C69        34.4067   27.2672    6.7656 C.3       12 UNK        -0.0954 
     70 S70        33.4639   26.6835    5.3142 S.3       12 UNK        -0.2268 
     71 C71        33.3282   24.9164    5.7292 C.3       12 UNK         0.0203 
     72 H72        26.3394   22.8161    0.2248 H         1 UNK         0.0888 
     73 H73        26.4616   21.8066   -1.2185 H         1 UNK         0.0888 
     74 H74        27.4352   21.4377    0.2032 H         1 UNK         0.0888 
     75 H75        29.4791   22.3263    0.3204 H         1 UNK         0.3017 
     76 H76        30.7285   23.2674   -1.9106 H         1 UNK         0.0873 
     77 H77        32.7436   23.3530   -0.6482 H         1 UNK         0.0745 
     78 H78        31.9460   23.8136    0.8236 H         1 UNK         0.0745 
     79 H79        33.6726   21.6837    1.9296 H         1 UNK         0.0705 
     80 H80        32.5572   20.4845    2.5333 H         1 UNK         0.0705 
     81 H81        33.9586   23.1300    3.7658 H         1 UNK         0.1334 
     82 H82        30.6214   25.0275    5.6537 H         1 UNK         0.1417 
     83 H83        29.9654   22.0215    2.6613 H         1 UNK         0.1562 
     84 H84        28.4431   24.7445    4.7991 H         1 UNK         0.0748 
     85 H85        28.2537   23.0257    5.0623 H         1 UNK         0.0748 
     86 H86        26.2196   24.9575    4.2714 H         1 UNK         0.0940 
     87 H87        25.2809   24.1388    3.0562 H         1 UNK         0.0940 
     88 H88        27.2454   26.3585    2.3546 H         1 UNK         0.0703 
     89 H89        26.7031   25.8925    0.2793 H         1 UNK         0.3081 
     90 H90        24.9985   24.1471   -1.3620 H         1 UNK         0.0719 
     91 H91        22.9977   26.4509   -1.5551 H         1 UNK         0.0809 
     92 H92        23.4064   25.3653   -2.8844 H         1 UNK         0.0809 
     93 H93        22.6404   24.7385   -1.4347 H         1 UNK         0.0809 
     94 H94        26.6242   25.4111   -2.1258 H         1 UNK         0.2990 
     95 H95        27.3888   27.3902   -3.4525 H         1 UNK         0.0690 
     96 H96        28.1420   29.7562   -3.0807 H         1 UNK         0.0788 
     97 H97        26.9926   29.9092   -1.7516 H         1 UNK         0.0788 
     98 H98        26.4146   29.6608   -3.3901 H         1 UNK         0.0788 
     99 H99        29.1328   26.9849   -2.1206 H         1 UNK         0.2993 
    100 H100       30.6904   27.7273   -0.2621 H         1 UNK         0.0949 
    101 H101       31.0214   27.2919    2.1378 H         1 UNK         0.0767 
    102 H102       29.9306   28.6545    1.9289 H         1 UNK         0.0767 
    103 H103       29.3023   27.0842    2.3956 H         1 UNK         0.0767 
    104 H104       29.7233   25.2063    0.9035 H         1 UNK         0.3013 
    105 H105       26.1222   28.2955    1.3552 H         1 UNK         0.3121 
    106 H106       24.3810   29.5060    3.4552 H         1 UNK         0.0774 
    107 H107       23.0798   30.6394    1.6565 H         1 UNK         0.0815 
    108 H108       23.9864   29.7701    0.4241 H         1 UNK         0.0815 
    109 H109       22.9230   28.8941    1.5231 H         1 UNK         0.0815 
    110 H110       27.1311   29.7988    1.2579 H         1 UNK         0.2987 
    111 H111       27.3265   32.7106    1.5448 H         1 UNK         0.0949 
    112 H112       29.2158   30.6287    0.3096 H         1 UNK         0.0806 
    113 H113       28.0446   31.6170   -0.5661 H         1 UNK         0.0806 
    114 H114       29.4211   32.3696    0.2136 H         1 UNK         0.0806 
    115 H115       29.0909   33.7696    2.5481 H         1 UNK         0.3010 
    116 H116       30.1711   32.5402    4.9924 H         1 UNK         0.0829 
    117 H117       29.2952   34.8609    5.0687 H         1 UNK         0.0813 
    118 H118       31.0188   34.8454    5.4015 H         1 UNK         0.0813 
    119 H119       30.4393   35.3641    3.8246 H         1 UNK         0.0813 
    120 H120       31.1908   30.9026    3.4517 H         1 UNK         0.3038 
    121 H121       33.5459   31.6234    1.9391 H         1 UNK         0.0769 
    122 H122       33.8171   29.1326    1.7806 H         1 UNK         0.0811 
    123 H123       32.1697   29.6088    1.4161 H         1 UNK         0.0811 
    124 H124       32.5643   28.9108    2.9914 H         1 UNK         0.0811 
    125 H125       35.6976   30.7594    2.3747 H         1 UNK         0.3204 
    126 H126       36.6834   31.4306    5.0107 H         1 UNK         0.0748 
    127 H127       38.8978   31.0815    3.9420 H         1 UNK         0.0771 
    128 H128       38.1292   30.4096    2.5100 H         1 UNK         0.0771 
    129 H129       37.8800   32.1017    2.9424 H         1 UNK         0.0771 
    130 H130       35.0752   29.5013    5.6659 H         1 UNK         0.2980 
    131 H131       36.2906   26.8704    5.8086 H         1 UNK         0.0545 
    132 H132       37.0016   29.7459    7.6543 H         1 UNK         0.3459 
    133 H133       37.7934   28.9070    8.9647 H         1 UNK         0.3459 
    134 H134       33.8741   28.1133    7.2035 H         1 UNK         0.0616 
    135 H135       34.3921   26.4865    7.5283 H         1 UNK         0.0616 
    136 H136       32.9612   24.8121    6.7514 H         1 UNK         0.0634 
    137 H137       34.3247   24.4720    5.7138 H         1 UNK         0.0634 
@<TRIPOS>BOND
     1    1    2 1    
     2    1   72 1    
     3    1   73 1    
     4    1   74 1    
     5    2    3 2    
     6    2    4 am   BACKBONE|DICT|INTERRES
     7    4    5 1    
     8    4   75 1    
     9    5    6 1    
    10    5   35 1    
    11    5   76 1    
    12    6    7 1    
    13    6   77 1    
    14    6   78 1    
    15    7    8 1    
    16    8    9 1    
    17    8   79 1    
    18    8   80 1    
    19    9   10 ar   
    20    9   14 ar   
    21   10   11 ar   
    22   10   81 1    
    23   11   12 ar   
    24   11   71 1    
    25   12   13 ar   
    26   12   82 1    
    27   13   14 ar   
    28   13   15 1    
    29   14   83 1    
    30   15   16 1    
    31   15   84 1    
    32   15   85 1    
    33   16   17 1    
    34   17   18 1    
    35   17   86 1    
    36   17   87 1    
    37   18   19 1    
    38   18   37 1    
    39   18   88 1    
    40   19   20 am   BACKBONE|DICT|INTERRES
    41   19   89 1    
    42   20   21 2    
    43   20   22 1    
    44   22   23 1    
    45   22   24 1    
    46   22   90 1    
    47   23   91 1    
    48   23   92 1    
    49   23   93 1    
    50   24   25 am   BACKBONE|DICT|INTERRES
    51   24   94 1    
    52   25   26 2    
    53   25   27 1    
    54   27   28 1    
    55   27   29 1    
    56   27   95 1    
    57   28   96 1    
    58   28   97 1    
    59   28   98 1    
    60   29   30 am   BACKBONE|DICT|INTERRES
    61   29   99 1    
    62   30   31 2    
    63   30   32 1    
    64   32   33 1    
    65   32   34 1    
    66   32  100 1    
    67   33  101 1    
    68   33  102 1    
    69   33  103 1    
    70   34   35 am   BACKBONE|DICT|INTERRES
    71   34  104 1    
    72   35   36 2    
    73   37   38 2    
    74   37   39 am   BACKBONE|DICT|INTERRES
    75   39   40 1    
    76   39  105 1    
    77   40   41 1    
    78   40   42 1    
    79   40  106 1    
    80   41  107 1    
    81   41  108 1    
    82   41  109 1    
    83   42   43 2    
    84   42   44 am   BACKBONE|DICT|INTERRES
    85   44   45 1    
    86   44  110 1    
    87   45   46 1    
    88   45   47 1    
    89   45  111 1    
    90   46  112 1    
    91   46  113 1    
    92   46  114 1    
    93   47   48 2    
    94   47   49 am   BACKBONE|DICT|INTERRES
    95   49   50 1    
    96   49  115 1    
    97   50   51 1    
    98   50   52 1    
    99   50  116 1    
   100   51  117 1    
   101   51  118 1    
   102   51  119 1    
   103   52   53 2    
   104   52   54 am   BACKBONE|DICT|INTERRES
   105   54   55 1    
   106   54  120 1    
   107   55   56 1    
   108   55   57 1    
   109   55  121 1    
   110   56  122 1    
   111   56  123 1    
   112   56  124 1    
   113   57   58 2    
   114   57   59 am   BACKBONE|DICT|INTERRES
   115   59   60 1    
   116   59  125 1    
   117   60   61 1    
   118   60   62 1    
   119   60  126 1    
   120   61  127 1    
   121   61  128 1    
   122   61  129 1    
   123   62   63 2    
   124   62   64 am   BACKBONE|DICT|INTERRES
   125   64   65 1    
   126   64  130 1    
   127   65   66 1    
   128   65   69 1    
   129   65  131 1    
   130   66   67 am   BACKBONE|DICT|INTERRES
   131   66   68 2    
   132   67  132 1    
   133   67  133 1    
   134   69   70 1    
   135   69  134 1    
   136   69  135 1    
   137   70   71 1    
   138   71  136 1    
   139   71  137 1    
@<TRIPOS>SUBSTRUCTURE
     1 UNK         1 GROUP             0       ****    0 ROOT    
