@<TRIPOS>MOLECULE
3R136
137   139    1
SMALL
USER_CHARGES


@<TRIPOS>ATOM
      1 CA         25.6554   18.9694    0.7696 C.3       0 UNK        -0.1979 
      2 C          26.9412   19.6005    0.2558 C.2       0 UNK         0.4864 
      3 O          27.5167   19.1101   -0.7172 O.2       0 UNK        -0.5359 
      4 N          27.3996   20.6784    0.9056 N.am      1 UNK        -0.4318 
      5 CA         28.5788   21.4526    0.5088 C.3       1 UNK         0.0824 
      6 C6         29.0486   22.3776    1.6592 C.3       12 UNK        -0.0944 
      7 S7         30.7749   22.9333    1.4449 S.3       12 UNK        -0.2672 
      8 C8         31.4395   22.7400    3.1295 C.3       12 UNK         0.0333 
      9 C9         30.9865   23.8772    4.0325 C.ar      12 UNK        -0.0807 
     10 C10        31.7503   25.0437    4.1210 C.ar      12 UNK        -0.0894 
     11 C11        31.3292   26.1107    4.9200 C.ar      12 UNK        -0.0804 
     12 C12        30.1403   25.9985    5.6475 C.ar      12 UNK        -0.0824 
     13 C13        29.3717   24.8337    5.5724 C.ar      12 UNK        -0.0762 
     14 C14        29.8037   23.7733    4.7701 C.ar      12 UNK        -0.0782 
     15 C15        28.0716   24.7138    6.3519 C.3       12 UNK         0.0230 
     16 S16        26.6258   24.8937    5.2615 S.3       12 UNK        -0.2608 
     17 C17        26.5038   26.7068    5.0563 C.3       12 UNK        -0.0989 
     18 CA         27.2349   27.2682    3.8019 C.3       5 UNK         0.0716 
     19 N          26.9746   26.5129    2.5695 N.am      5 UNK        -0.4135 
     20 C          25.8057   26.3636    1.9284 C.2       4 UNK         0.5031 
     21 O          24.7245   26.7479    2.3767 O.2       4 UNK        -0.5229 
     22 CA         25.8639   25.7232    0.5232 C.3       4 UNK         0.0329 
     23 CB         24.8306   26.3495   -0.4366 C.3       4 UNK        -0.2001 
     24 N          27.1980   25.7305   -0.1017 N.am      4 UNK        -0.4303 
     25 C          27.9837   26.7934   -0.3535 C.2       3 UNK         0.5044 
     26 O          27.6787   27.9484   -0.0527 O.2       3 UNK        -0.5152 
     27 CA         29.3714   26.5342   -0.9707 C.3       3 UNK         0.0319 
     28 CB         30.4719   26.8287    0.0627 C.3       3 UNK        -0.2001 
     29 N          29.5457   25.1657   -1.4621 N.am      3 UNK        -0.4354 
     30 C          29.0525   24.6967   -2.6176 C.2       2 UNK         0.4964 
     31 O          28.4623   25.3926   -3.4438 O.2       2 UNK        -0.5047 
     32 CA         29.2184   23.1875   -2.8819 C.3       2 UNK         0.0288 
     33 CB         30.4752   22.9242   -3.7272 C.3       2 UNK        -0.2113 
     34 N          29.2786   22.3774   -1.6585 N.am      2 UNK        -0.4145 
     35 C          28.2843   22.2682   -0.7654 C.2       1 UNK         0.5006 
     36 O          27.1960   22.8375   -0.8823 O.2       1 UNK        -0.5103 
     37 C          27.0009   28.7947    3.6410 C.2       5 UNK         0.5055 
     38 O          26.9872   29.5097    4.6445 O.2       5 UNK        -0.5220 
     39 N          26.8163   29.2807    2.4033 N.am      6 UNK        -0.4450 
     40 CA         26.3995   30.6504    2.0936 C.3       6 UNK         0.0367 
     41 CB         25.5487   30.6266    0.8129 C.3       6 UNK        -0.1929 
     42 C          27.5791   31.6197    1.9302 C.2       6 UNK         0.5070 
     43 O          27.3750   32.8310    2.0091 O.2       6 UNK        -0.5237 
     44 N          28.7868   31.0854    1.7044 N.am      7 UNK        -0.4739 
     45 CA         30.0166   31.8576    1.4960 C.3       7 UNK         0.0276 
     46 CB         31.0418   30.9728    0.7731 C.3       7 UNK        -0.1927 
     47 C          30.6056   32.4805    2.7791 C.2       7 UNK         0.5013 
     48 O          31.5324   33.2830    2.6682 O.2       7 UNK        -0.5193 
     49 N          30.0472   32.1284    3.9498 N.am      8 UNK        -0.4253 
     50 CA         30.3230   32.6792    5.2832 C.3       8 UNK         0.0242 
     51 CB         29.8590   34.1491    5.3661 C.3       8 UNK        -0.2000 
     52 C          31.7918   32.5017    5.7048 C.2       8 UNK         0.4948 
     53 O          32.5665   33.4603    5.6869 O.2       8 UNK        -0.5275 
     54 N          32.1530   31.2570    6.0449 N.am      9 UNK        -0.4246 
     55 CA         33.4714   30.7733    6.4883 C.3       9 UNK         0.0261 
     56 CB         33.9634   31.5073    7.7514 C.3       9 UNK        -0.1959 
     57 C          34.5513   30.7648    5.3921 C.2       9 UNK         0.5033 
     58 O          35.3184   29.8037    5.3218 O.2       9 UNK        -0.5390 
     59 N          34.5698   31.7786    4.5177 N.am      10 UNK        -0.4215 
     60 CA         35.4277   31.8890    3.3310 C.3       10 UNK         0.0240 
     61 CB         35.5233   33.3728    2.9296 C.3       10 UNK        -0.1982 
     62 C          34.9435   30.9910    2.1701 C.2       10 UNK         0.4970 
     63 O          34.8546   31.4436    1.0274 O.2       10 UNK        -0.4916 
     64 N          34.6102   29.7403    2.4962 N.am      11 UNK        -0.4279 
     65 CA         34.0474   28.7295    1.5988 C.3       11 UNK         0.1003 
     66 C          35.1267   28.0876    0.6888 C.2       11 UNK         0.5709 
     67 N          34.7591   27.6875   -0.5210 N.am      11 UNK        -0.7358 
     68 O          36.2805   27.9151    1.0789 O.2       11 UNK        -0.4999 
     69 C69        33.2707   27.6534    2.4013 C.3       12 UNK        -0.0954 
     70 S70        31.9690   28.3710    3.4710 S.3       12 UNK        -0.2268 
     71 C71        32.1497   27.3889    4.9908 C.3       12 UNK         0.0203 
     72 H72        25.8331   17.9322    1.0522 H         1 UNK         0.0888 
     73 H73        25.2623   19.4950    1.6398 H         1 UNK         0.0888 
     74 H74        24.8931   18.9854   -0.0088 H         1 UNK         0.0888 
     75 H75        26.8663   21.0534    1.6767 H         1 UNK         0.3017 
     76 H76        29.3747   20.7365    0.2903 H         1 UNK         0.0873 
     77 H77        28.3992   23.2482    1.7744 H         1 UNK         0.0745 
     78 H78        28.9819   21.8316    2.6007 H         1 UNK         0.0745 
     79 H79        31.1461   21.7744    3.5443 H         1 UNK         0.0705 
     80 H80        32.5291   22.7248    3.0746 H         1 UNK         0.0705 
     81 H81        32.6655   25.1255    3.5523 H         1 UNK         0.1334 
     82 H82        29.8062   26.8220    6.2639 H         1 UNK         0.1417 
     83 H83        29.2065   22.8741    4.7107 H         1 UNK         0.1562 
     84 H84        28.0254   25.4450    7.1604 H         1 UNK         0.0748 
     85 H85        28.0299   23.7334    6.8288 H         1 UNK         0.0748 
     86 H86        26.8762   27.1900    5.9614 H         1 UNK         0.0940 
     87 H87        25.4415   26.9534    5.0090 H         1 UNK         0.0940 
     88 H88        28.3062   27.1661    3.9719 H         1 UNK         0.0703 
     89 H89        27.7959   26.1430    2.1155 H         1 UNK         0.3081 
     90 H90        25.5987   24.6737    0.6599 H         1 UNK         0.0719 
     91 H91        25.0017   27.4181   -0.5722 H         1 UNK         0.0809 
     92 H92        24.8654   25.8769   -1.4182 H         1 UNK         0.0809 
     93 H93        23.8152   26.2280   -0.0575 H         1 UNK         0.0809 
     94 H94        27.5193   24.8184   -0.4070 H         1 UNK         0.2990 
     95 H95        29.4908   27.2273   -1.8061 H         1 UNK         0.0690 
     96 H96        31.4634   26.7091   -0.3736 H         1 UNK         0.0788 
     97 H97        30.4052   26.1686    0.9291 H         1 UNK         0.0788 
     98 H98        30.4039   27.8535    0.4296 H         1 UNK         0.0788 
     99 H99        30.0331   24.5236   -0.8528 H         1 UNK         0.2993 
    100 H100       28.3454   22.8618   -3.4519 H         1 UNK         0.0949 
    101 H101       30.4469   23.4949   -4.6567 H         1 UNK         0.0767 
    102 H102       31.3856   23.2082   -3.1977 H         1 UNK         0.0767 
    103 H103       30.5577   21.8715   -3.9988 H         1 UNK         0.0767 
    104 H104       30.1486   21.8963   -1.4776 H         1 UNK         0.3013 
    105 H105       26.9211   28.6577    1.6066 H         1 UNK         0.3121 
    106 H106       25.7751   31.0278    2.9065 H         1 UNK         0.0774 
    107 H107       26.1206   30.2713   -0.0454 H         1 UNK         0.0815 
    108 H108       25.1800   31.6240    0.5693 H         1 UNK         0.0815 
    109 H109       24.6793   29.9787    0.9270 H         1 UNK         0.0815 
    110 H110       28.8574   30.0800    1.6387 H         1 UNK         0.2987 
    111 H111       29.7813   32.6947    0.8347 H         1 UNK         0.0949 
    112 H112       31.2401   30.0638    1.3344 H         1 UNK         0.0806 
    113 H113       30.6872   30.6830   -0.2162 H         1 UNK         0.0806 
    114 H114       31.9914   31.4926    0.6375 H         1 UNK         0.0806 
    115 H115       29.3053   31.4438    3.9064 H         1 UNK         0.3010 
    116 H116       29.7164   32.1093    5.9890 H         1 UNK         0.0829 
    117 H117       30.4133   34.7920    4.6813 H         1 UNK         0.0813 
    118 H118       28.7994   34.2436    5.1281 H         1 UNK         0.0813 
    119 H119       30.0036   34.5466    6.3714 H         1 UNK         0.0813 
    120 H120       31.4461   30.5390    5.9675 H         1 UNK         0.3038 
    121 H121       33.3155   29.7306    6.7688 H         1 UNK         0.0769 
    122 H122       34.1865   32.5567    7.5575 H         1 UNK         0.0811 
    123 H123       34.8777   31.0504    8.1323 H         1 UNK         0.0811 
    124 H124       33.2228   31.4634    8.5500 H         1 UNK         0.0811 
    125 H125       33.8887   32.5204    4.6641 H         1 UNK         0.3204 
    126 H126       36.4308   31.5497    3.5973 H         1 UNK         0.0748 
    127 H127       36.2009   33.5103    2.0860 H         1 UNK         0.0771 
    128 H128       34.5500   33.7713    2.6384 H         1 UNK         0.0771 
    129 H129       35.9028   33.9822    3.7501 H         1 UNK         0.0771 
    130 H130       34.7691   29.4483    3.4542 H         1 UNK         0.2980 
    131 H131       33.3384   29.2342    0.9423 H         1 UNK         0.0545 
    132 H132       35.4445   27.2555   -1.1207 H         1 UNK         0.3459 
    133 H133       33.8175   27.8207   -0.8532 H         1 UNK         0.3459 
    134 H134       32.7982   26.9380    1.7278 H         1 UNK         0.0616 
    135 H135       33.9681   27.0790    3.0130 H         1 UNK         0.0616 
    136 H136       33.1991   27.1592    5.1797 H         1 UNK         0.0634 
    137 H137       31.8192   27.9981    5.8326 H         1 UNK         0.0634 
@<TRIPOS>BOND
     1    1    2 1    
     2    1   72 1    
     3    1   73 1    
     4    1   74 1    
     5    2    3 2    
     6    2    4 am   BACKBONE|DICT|INTERRES
     7    4    5 1    
     8    4   75 1    
     9    5    6 1    
    10    5   35 1    
    11    5   76 1    
    12    6    7 1    
    13    6   77 1    
    14    6   78 1    
    15    7    8 1    
    16    8    9 1    
    17    8   79 1    
    18    8   80 1    
    19    9   10 ar   
    20    9   14 ar   
    21   10   11 ar   
    22   10   81 1    
    23   11   12 ar   
    24   11   71 1    
    25   12   13 ar   
    26   12   82 1    
    27   13   14 ar   
    28   13   15 1    
    29   14   83 1    
    30   15   16 1    
    31   15   84 1    
    32   15   85 1    
    33   16   17 1    
    34   17   18 1    
    35   17   86 1    
    36   17   87 1    
    37   18   19 1    
    38   18   37 1    
    39   18   88 1    
    40   19   20 am   BACKBONE|DICT|INTERRES
    41   19   89 1    
    42   20   21 2    
    43   20   22 1    
    44   22   23 1    
    45   22   24 1    
    46   22   90 1    
    47   23   91 1    
    48   23   92 1    
    49   23   93 1    
    50   24   25 am   BACKBONE|DICT|INTERRES
    51   24   94 1    
    52   25   26 2    
    53   25   27 1    
    54   27   28 1    
    55   27   29 1    
    56   27   95 1    
    57   28   96 1    
    58   28   97 1    
    59   28   98 1    
    60   29   30 am   BACKBONE|DICT|INTERRES
    61   29   99 1    
    62   30   31 2    
    63   30   32 1    
    64   32   33 1    
    65   32   34 1    
    66   32  100 1    
    67   33  101 1    
    68   33  102 1    
    69   33  103 1    
    70   34   35 am   BACKBONE|DICT|INTERRES
    71   34  104 1    
    72   35   36 2    
    73   37   38 2    
    74   37   39 am   BACKBONE|DICT|INTERRES
    75   39   40 1    
    76   39  105 1    
    77   40   41 1    
    78   40   42 1    
    79   40  106 1    
    80   41  107 1    
    81   41  108 1    
    82   41  109 1    
    83   42   43 2    
    84   42   44 am   BACKBONE|DICT|INTERRES
    85   44   45 1    
    86   44  110 1    
    87   45   46 1    
    88   45   47 1    
    89   45  111 1    
    90   46  112 1    
    91   46  113 1    
    92   46  114 1    
    93   47   48 2    
    94   47   49 am   BACKBONE|DICT|INTERRES
    95   49   50 1    
    96   49  115 1    
    97   50   51 1    
    98   50   52 1    
    99   50  116 1    
   100   51  117 1    
   101   51  118 1    
   102   51  119 1    
   103   52   53 2    
   104   52   54 am   BACKBONE|DICT|INTERRES
   105   54   55 1    
   106   54  120 1    
   107   55   56 1    
   108   55   57 1    
   109   55  121 1    
   110   56  122 1    
   111   56  123 1    
   112   56  124 1    
   113   57   58 2    
   114   57   59 am   BACKBONE|DICT|INTERRES
   115   59   60 1    
   116   59  125 1    
   117   60   61 1    
   118   60   62 1    
   119   60  126 1    
   120   61  127 1    
   121   61  128 1    
   122   61  129 1    
   123   62   63 2    
   124   62   64 am   BACKBONE|DICT|INTERRES
   125   64   65 1    
   126   64  130 1    
   127   65   66 1    
   128   65   69 1    
   129   65  131 1    
   130   66   67 am   BACKBONE|DICT|INTERRES
   131   66   68 2    
   132   67  132 1    
   133   67  133 1    
   134   69   70 1    
   135   69  134 1    
   136   69  135 1    
   137   70   71 1    
   138   71  136 1    
   139   71  137 1    
@<TRIPOS>SUBSTRUCTURE
     1 UNK         1 GROUP             0       ****    0 ROOT    
