@<TRIPOS>MOLECULE
3R136
137   139    1
SMALL
USER_CHARGES


@<TRIPOS>ATOM
      1 CA         26.5027   17.2045    3.3953 C.3       0 UNK        -0.1979 
      2 C          26.8455   18.3856    2.4990 C.2       0 UNK         0.4864 
      3 O          26.7543   18.2716    1.2755 O.2       0 UNK        -0.5359 
      4 N          27.2461   19.5157    3.0963 N.am      1 UNK        -0.4318 
      5 CA         27.5523   20.7664    2.3986 C.3       1 UNK         0.0824 
      6 C6         28.3548   21.7244    3.3132 C.3       12 UNK        -0.0944 
      7 S7         28.9965   23.1969    2.4470 S.3       12 UNK        -0.2672 
      8 C8         30.6981   22.6826    2.0646 C.3       12 UNK         0.0333 
      9 C9         31.5118   23.8669    1.5690 C.ar      12 UNK        -0.0807 
     10 C10        32.3408   24.5657    2.4502 C.ar      12 UNK        -0.0894 
     11 C11        33.0743   25.6702    2.0093 C.ar      12 UNK        -0.0804 
     12 C12        32.9714   26.0764    0.6754 C.ar      12 UNK        -0.0824 
     13 C13        32.1230   25.4048   -0.2121 C.ar      12 UNK        -0.0762 
     14 C14        31.4159   24.2827    0.2380 C.ar      12 UNK        -0.0782 
     15 C15        31.9704   25.9090   -1.6452 C.3       12 UNK         0.0230 
     16 S16        30.2252   25.9810   -2.1730 S.3       12 UNK        -0.2608 
     17 C17        30.2769   27.1881   -3.5468 C.3       12 UNK        -0.0989 
     18 CA         29.5551   28.5241   -3.2265 C.3       5 UNK         0.0716 
     19 N          28.1694   28.3046   -2.7940 N.am      5 UNK        -0.4135 
     20 C          27.2335   29.2497   -2.6414 C.2       4 UNK         0.5031 
     21 O          27.3797   30.4163   -3.0078 O.2       4 UNK        -0.5229 
     22 CA         25.9344   28.8540   -1.9135 C.3       4 UNK         0.0329 
     23 CB         24.8778   28.3217   -2.9017 C.3       4 UNK        -0.2001 
     24 N          26.1254   27.9454   -0.7685 N.am      4 UNK        -0.4303 
     25 C          26.4946   26.6562   -0.7721 C.2       3 UNK         0.5044 
     26 O          26.7695   26.0350   -1.8010 O.2       3 UNK        -0.5152 
     27 CA         26.6348   25.9501    0.5940 C.3       3 UNK         0.0319 
     28 CB         25.8410   26.6188    1.7394 C.3       3 UNK        -0.2001 
     29 N          26.3161   24.5201    0.4991 N.am      3 UNK        -0.4354 
     30 C          25.1475   23.9716    0.1268 C.2       2 UNK         0.4964 
     31 O          24.1177   24.6148   -0.0818 O.2       2 UNK        -0.5047 
     32 CA         25.1161   22.4444   -0.0717 C.3       2 UNK         0.0288 
     33 CB         25.1333   22.1029   -1.5715 C.3       2 UNK        -0.2113 
     34 N          26.2307   21.7541    0.5828 N.am      2 UNK        -0.4145 
     35 C          26.2522   21.4152    1.8785 C.2       1 UNK         0.5006 
     36 O          25.3141   21.6075    2.6570 O.2       1 UNK        -0.5103 
     37 C          30.3549   29.3734   -2.2121 C.2       5 UNK         0.5055 
     38 O          31.2686   30.0976   -2.6101 O.2       5 UNK        -0.5220 
     39 N          29.9814   29.2765   -0.9317 N.am      6 UNK        -0.4450 
     40 CA         30.4960   30.0220    0.2068 C.3       6 UNK         0.0367 
     41 CB         31.8882   29.4972    0.6072 C.3       6 UNK        -0.1929 
     42 C          29.4876   29.8606    1.3541 C.2       6 UNK         0.5070 
     43 O          28.4787   29.1640    1.2015 O.2       6 UNK        -0.5237 
     44 N          29.7963   30.4927    2.4862 N.am      7 UNK        -0.4739 
     45 CA         29.1109   30.3527    3.7663 C.3       7 UNK         0.0276 
     46 CB         28.1660   31.5491    3.9708 C.3       7 UNK        -0.1927 
     47 C          30.1857   30.3021    4.8589 C.2       7 UNK         0.5013 
     48 O          31.3333   30.6726    4.5941 O.2       7 UNK        -0.5193 
     49 N          29.8017   29.8854    6.0735 N.am      8 UNK        -0.4253 
     50 CA         30.6916   29.6846    7.2281 C.3       8 UNK         0.0242 
     51 CB         29.8574   29.2710    8.4511 C.3       8 UNK        -0.2000 
     52 C          31.5952   30.8831    7.5776 C.2       8 UNK         0.4948 
     53 O          32.7442   30.6782    7.9697 O.2       8 UNK        -0.5275 
     54 N          31.0799   32.1052    7.3832 N.am      9 UNK        -0.4246 
     55 CA         31.8147   33.3611    7.5563 C.3       9 UNK         0.0261 
     56 CB         30.8237   34.5354    7.5035 C.3       9 UNK        -0.1959 
     57 C          32.9489   33.5701    6.5331 C.2       9 UNK         0.5033 
     58 O          33.9097   34.2737    6.8485 O.2       9 UNK        -0.5390 
     59 N          32.8252   32.9713    5.3402 N.am      10 UNK        -0.4215 
     60 CA         33.8501   32.9804    4.2958 C.3       10 UNK         0.0240 
     61 CB         33.1825   33.0027    2.9105 C.3       10 UNK        -0.1982 
     62 C          34.7895   31.7726    4.4316 C.2       10 UNK         0.4970 
     63 O          35.9926   31.9290    4.2189 O.2       10 UNK        -0.4916 
     64 N          34.2376   30.6024    4.7867 N.am      11 UNK        -0.4279 
     65 CA         34.9994   29.3732    5.0613 C.3       11 UNK         0.1003 
     66 C          35.9547   29.4972    6.2812 C.2       11 UNK         0.5709 
     67 N          35.5382   30.1308    7.3712 N.am      11 UNK        -0.7358 
     68 O          37.0838   29.0148    6.2349 O.2       11 UNK        -0.4999 
     69 C69        34.0848   28.1336    5.2308 C.3       12 UNK        -0.0954 
     70 S70        33.0395   27.7842    3.7783 S.3       12 UNK        -0.2268 
     71 C71        33.9600   26.4296    2.9850 C.3       12 UNK         0.0203 
     72 H72        27.1386   16.3532    3.1538 H         1 UNK         0.0888 
     73 H73        26.6385   17.4403    4.4507 H         1 UNK         0.0888 
     74 H74        25.4648   16.9088    3.2449 H         1 UNK         0.0888 
     75 H75        27.2709   19.5591    4.1051 H         1 UNK         0.3017 
     76 H76        28.1848   20.5137    1.5444 H         1 UNK         0.0873 
     77 H77        27.7383   22.0636    4.1482 H         1 UNK         0.0745 
     78 H78        29.1931   21.1921    3.7655 H         1 UNK         0.0745 
     79 H79        31.1634   22.2549    2.9541 H         1 UNK         0.0705 
     80 H80        30.6815   21.8938    1.3110 H         1 UNK         0.0705 
     81 H81        32.4064   24.2578    3.4851 H         1 UNK         0.1334 
     82 H82        33.5343   26.9360    0.3379 H         1 UNK         0.1417 
     83 H83        30.7623   23.7507   -0.4398 H         1 UNK         0.1562 
     84 H84        32.5262   25.2574   -2.3206 H         1 UNK         0.0748 
     85 H85        32.4066   26.9051   -1.7372 H         1 UNK         0.0748 
     86 H86        29.7979   26.7214   -4.4090 H         1 UNK         0.0940 
     87 H87        31.3088   27.3679   -3.8551 H         1 UNK         0.0940 
     88 H88        29.5123   29.1046   -4.1505 H         1 UNK         0.0703 
     89 H89        27.9329   27.3604   -2.4981 H         1 UNK         0.3081 
     90 H90        25.5353   29.7734   -1.4820 H         1 UNK         0.0719 
     91 H91        24.6589   29.0636   -3.6708 H         1 UNK         0.0809 
     92 H92        23.9402   28.0939   -2.3946 H         1 UNK         0.0809 
     93 H93        25.2106   27.4180   -3.4128 H         1 UNK         0.0809 
     94 H94        25.9958   28.3758    0.1374 H         1 UNK         0.2990 
     95 H95        27.6938   26.0047    0.8522 H         1 UNK         0.0690 
     96 H96        25.9234   26.0413    2.6603 H         1 UNK         0.0788 
     97 H97        24.7807   26.7135    1.5020 H         1 UNK         0.0788 
     98 H98        26.2243   27.6159    1.9596 H         1 UNK         0.0788 
     99 H99        27.1001   23.8985    0.6371 H         1 UNK         0.2993 
    100 H100       24.1759   22.0802    0.3492 H         1 UNK         0.0949 
    101 H101       25.0573   21.0277   -1.7353 H         1 UNK         0.0767 
    102 H102       24.2918   22.5681   -2.0870 H         1 UNK         0.0767 
    103 H103       26.0454   22.4552   -2.0556 H         1 UNK         0.0767 
    104 H104       27.0333   21.5427    0.0070 H         1 UNK         0.3013 
    105 H105       29.1948   28.6852   -0.6905 H         1 UNK         0.3121 
    106 H106       30.5560   31.0789   -0.0604 H         1 UNK         0.0774 
    107 H107       32.3433   30.1161    1.3802 H         1 UNK         0.0815 
    108 H108       31.8168   28.4873    1.0074 H         1 UNK         0.0815 
    109 H109       32.5785   29.4804   -0.2358 H         1 UNK         0.0815 
    110 H110       30.6878   30.9654    2.5587 H         1 UNK         0.2987 
    111 H111       28.5459   29.4179    3.7929 H         1 UNK         0.0949 
    112 H112       28.7092   32.4951    3.9821 H         1 UNK         0.0806 
    113 H113       27.4218   31.6020    3.1759 H         1 UNK         0.0806 
    114 H114       27.6242   31.4699    4.9139 H         1 UNK         0.0806 
    115 H115       28.8358   29.6214    6.2059 H         1 UNK         0.3010 
    116 H116       31.3500   28.8522    6.9754 H         1 UNK         0.0829 
    117 H117       29.3088   28.3475    8.2650 H         1 UNK         0.0813 
    118 H118       30.4961   29.0951    9.3181 H         1 UNK         0.0813 
    119 H119       29.1366   30.0412    8.7284 H         1 UNK         0.0813 
    120 H120       30.1263   32.1742    7.0589 H         1 UNK         0.3038 
    121 H121       32.2720   33.3445    8.5480 H         1 UNK         0.0769 
    122 H122       30.3160   34.5932    6.5398 H         1 UNK         0.0811 
    123 H123       31.3367   35.4857    7.6586 H         1 UNK         0.0811 
    124 H124       30.0639   34.4500    8.2806 H         1 UNK         0.0811 
    125 H125       32.0393   32.3470    5.1844 H         1 UNK         0.3204 
    126 H126       34.4550   33.8854    4.3863 H         1 UNK         0.0748 
    127 H127       32.5431   33.8778    2.7940 H         1 UNK         0.0771 
    128 H128       33.9317   33.0405    2.1186 H         1 UNK         0.0771 
    129 H129       32.5724   32.1173    2.7378 H         1 UNK         0.0771 
    130 H130       33.2288   30.5375    4.8775 H         1 UNK         0.2980 
    131 H131       35.6296   29.1931    4.1881 H         1 UNK         0.0545 
    132 H132       34.5789   30.4570    7.4501 H         1 UNK         0.3459 
    133 H133       36.1598   30.2141    8.1590 H         1 UNK         0.3459 
    134 H134       34.6805   27.2480    5.4586 H         1 UNK         0.0616 
    135 H135       33.4252   28.2725    6.0879 H         1 UNK         0.0616 
    136 H136       34.3376   25.7417    3.7429 H         1 UNK         0.0634 
    137 H137       34.8327   26.8377    2.4731 H         1 UNK         0.0634 
@<TRIPOS>BOND
     1    1    2 1    
     2    1   72 1    
     3    1   73 1    
     4    1   74 1    
     5    2    3 2    
     6    2    4 am   BACKBONE|DICT|INTERRES
     7    4    5 1    
     8    4   75 1    
     9    5    6 1    
    10    5   35 1    
    11    5   76 1    
    12    6    7 1    
    13    6   77 1    
    14    6   78 1    
    15    7    8 1    
    16    8    9 1    
    17    8   79 1    
    18    8   80 1    
    19    9   10 ar   
    20    9   14 ar   
    21   10   11 ar   
    22   10   81 1    
    23   11   12 ar   
    24   11   71 1    
    25   12   13 ar   
    26   12   82 1    
    27   13   14 ar   
    28   13   15 1    
    29   14   83 1    
    30   15   16 1    
    31   15   84 1    
    32   15   85 1    
    33   16   17 1    
    34   17   18 1    
    35   17   86 1    
    36   17   87 1    
    37   18   19 1    
    38   18   37 1    
    39   18   88 1    
    40   19   20 am   BACKBONE|DICT|INTERRES
    41   19   89 1    
    42   20   21 2    
    43   20   22 1    
    44   22   23 1    
    45   22   24 1    
    46   22   90 1    
    47   23   91 1    
    48   23   92 1    
    49   23   93 1    
    50   24   25 am   BACKBONE|DICT|INTERRES
    51   24   94 1    
    52   25   26 2    
    53   25   27 1    
    54   27   28 1    
    55   27   29 1    
    56   27   95 1    
    57   28   96 1    
    58   28   97 1    
    59   28   98 1    
    60   29   30 am   BACKBONE|DICT|INTERRES
    61   29   99 1    
    62   30   31 2    
    63   30   32 1    
    64   32   33 1    
    65   32   34 1    
    66   32  100 1    
    67   33  101 1    
    68   33  102 1    
    69   33  103 1    
    70   34   35 am   BACKBONE|DICT|INTERRES
    71   34  104 1    
    72   35   36 2    
    73   37   38 2    
    74   37   39 am   BACKBONE|DICT|INTERRES
    75   39   40 1    
    76   39  105 1    
    77   40   41 1    
    78   40   42 1    
    79   40  106 1    
    80   41  107 1    
    81   41  108 1    
    82   41  109 1    
    83   42   43 2    
    84   42   44 am   BACKBONE|DICT|INTERRES
    85   44   45 1    
    86   44  110 1    
    87   45   46 1    
    88   45   47 1    
    89   45  111 1    
    90   46  112 1    
    91   46  113 1    
    92   46  114 1    
    93   47   48 2    
    94   47   49 am   BACKBONE|DICT|INTERRES
    95   49   50 1    
    96   49  115 1    
    97   50   51 1    
    98   50   52 1    
    99   50  116 1    
   100   51  117 1    
   101   51  118 1    
   102   51  119 1    
   103   52   53 2    
   104   52   54 am   BACKBONE|DICT|INTERRES
   105   54   55 1    
   106   54  120 1    
   107   55   56 1    
   108   55   57 1    
   109   55  121 1    
   110   56  122 1    
   111   56  123 1    
   112   56  124 1    
   113   57   58 2    
   114   57   59 am   BACKBONE|DICT|INTERRES
   115   59   60 1    
   116   59  125 1    
   117   60   61 1    
   118   60   62 1    
   119   60  126 1    
   120   61  127 1    
   121   61  128 1    
   122   61  129 1    
   123   62   63 2    
   124   62   64 am   BACKBONE|DICT|INTERRES
   125   64   65 1    
   126   64  130 1    
   127   65   66 1    
   128   65   69 1    
   129   65  131 1    
   130   66   67 am   BACKBONE|DICT|INTERRES
   131   66   68 2    
   132   67  132 1    
   133   67  133 1    
   134   69   70 1    
   135   69  134 1    
   136   69  135 1    
   137   70   71 1    
   138   71  136 1    
   139   71  137 1    
@<TRIPOS>SUBSTRUCTURE
     1 UNK         1 GROUP             0       ****    0 ROOT    
