@<TRIPOS>MOLECULE
3R136
137   139    1
SMALL
USER_CHARGES


@<TRIPOS>ATOM
      1 CA         30.5436   24.8392    3.9086 C.3       0 UNK        -0.1979 
      2 C          29.4120   23.8296    3.9098 C.2       0 UNK         0.4864 
      3 O          28.3606   24.0896    4.4951 O.2       0 UNK        -0.5359 
      4 N          29.6150   22.6780    3.2536 N.am      1 UNK        -0.4318 
      5 CA         28.5808   21.6509    3.0814 C.3       1 UNK         0.0824 
      6 C6         29.1832   20.2406    2.8530 C.3       12 UNK        -0.0944 
      7 S7         29.9369   19.9452    1.2152 S.3       12 UNK        -0.2672 
      8 C8         31.7211   20.1223    1.5477 C.3       12 UNK         0.0333 
      9 C9         32.2025   21.5641    1.4335 C.ar      12 UNK        -0.0807 
     10 C10        32.9759   22.1370    2.4480 C.ar      12 UNK        -0.0894 
     11 C11        33.4748   23.4376    2.3169 C.ar      12 UNK        -0.0804 
     12 C12        33.1838   24.1635    1.1545 C.ar      12 UNK        -0.0824 
     13 C13        32.3814   23.6196    0.1436 C.ar      12 UNK        -0.0762 
     14 C14        31.9127   22.3122    0.2882 C.ar      12 UNK        -0.0782 
     15 C15        32.0112   24.3878   -1.1287 C.3       12 UNK         0.0230 
     16 S16        32.0675   26.2112   -1.0147 S.3       12 UNK        -0.2608 
     17 C17        31.0278   26.5454    0.4422 C.3       12 UNK        -0.0989 
     18 CA         30.3501   27.9338    0.3642 C.3       5 UNK         0.0716 
     19 N          29.1076   27.9075   -0.4094 N.am      5 UNK        -0.4135 
     20 C          28.5832   28.9765   -1.0250 C.2       4 UNK         0.5031 
     21 O          29.1453   30.0692   -1.1023 O.2       4 UNK        -0.5229 
     22 CA         27.1897   28.8096   -1.6595 C.3       4 UNK         0.0329 
     23 CB         27.3181   28.3953   -3.1343 C.3       4 UNK        -0.2001 
     24 N          26.3328   27.8479   -0.9602 N.am      4 UNK        -0.4303 
     25 C          25.8772   27.9942    0.2925 C.2       3 UNK         0.5044 
     26 O          26.1142   28.9697    1.0026 O.2       3 UNK        -0.5152 
     27 CA         25.0658   26.8244    0.8747 C.3       3 UNK         0.0319 
     28 CB         23.5763   26.9796    0.5307 C.3       3 UNK        -0.2001 
     29 N          25.5356   25.5011    0.4477 N.am      3 UNK        -0.4354 
     30 C          26.7741   25.0276    0.6404 C.2       2 UNK         0.4964 
     31 O          27.6947   25.6839    1.1389 O.2       2 UNK        -0.5047 
     32 CA         27.0499   23.6076    0.1343 C.3       2 UNK         0.0288 
     33 CB         27.7497   23.6639   -1.2334 C.3       2 UNK        -0.2113 
     34 N          27.9252   22.9398    1.0909 N.am      2 UNK        -0.4145 
     35 C          27.5322   22.0557    2.0191 C.2       1 UNK         0.5006 
     36 O          26.3948   21.5846    2.0807 O.2       1 UNK        -0.5103 
     37 C          30.1022   28.4842    1.7786 C.2       5 UNK         0.5055 
     38 O          30.9578   29.1981    2.2969 O.2       5 UNK        -0.5220 
     39 N          28.9662   28.1245    2.3918 N.am      6 UNK        -0.4450 
     40 CA         28.6051   28.5423    3.7449 C.3       6 UNK         0.0367 
     41 CB         27.3865   27.7404    4.2287 C.3       6 UNK        -0.1929 
     42 C          28.3508   30.0544    3.8590 C.2       6 UNK         0.5070 
     43 O          28.9856   30.7049    4.6931 O.2       6 UNK        -0.5237 
     44 N          27.4276   30.5635    3.0280 N.am      7 UNK        -0.4739 
     45 CA         26.8427   31.9102    3.0543 C.3       7 UNK         0.0276 
     46 CB         25.9257   32.0819    1.8302 C.3       7 UNK        -0.1927 
     47 C          27.8698   33.0528    3.1406 C.2       7 UNK         0.5013 
     48 O          28.4249   33.4571    2.1174 O.2       7 UNK        -0.5193 
     49 N          28.0977   33.5325    4.3732 N.am      8 UNK        -0.4253 
     50 CA         29.0224   34.6040    4.7652 C.3       8 UNK         0.0242 
     51 CB         28.5298   35.9647    4.2262 C.3       8 UNK        -0.2000 
     52 C          30.4998   34.3285    4.4120 C.2       8 UNK         0.4948 
     53 O          31.2696   35.2806    4.2662 O.2       8 UNK        -0.5275 
     54 N          30.8757   33.0483    4.2839 N.am      9 UNK        -0.4246 
     55 CA         32.2159   32.6265    3.8668 C.3       9 UNK         0.0261 
     56 CB         32.2429   32.4290    2.3411 C.3       9 UNK        -0.1959 
     57 C          32.7293   31.3802    4.6017 C.2       9 UNK         0.5033 
     58 O          33.9472   31.2257    4.7001 O.2       9 UNK        -0.5390 
     59 N          31.8326   30.5158    5.1023 N.am      10 UNK        -0.4215 
     60 CA         32.0810   29.2662    5.8421 C.3       10 UNK         0.0240 
     61 CB         32.8454   29.5274    7.1550 C.3       10 UNK        -0.1982 
     62 C          32.7399   28.1264    5.0362 C.2       10 UNK         0.4970 
     63 O          32.4297   26.9670    5.3044 O.2       10 UNK        -0.4916 
     64 N          33.6112   28.4483    4.0774 N.am      11 UNK        -0.4279 
     65 CA         34.2456   27.5344    3.1229 C.3       11 UNK         0.1003 
     66 C          34.7174   28.3096    1.8591 C.2       11 UNK         0.5709 
     67 N          35.3017   27.6267    0.8854 N.am      11 UNK        -0.7358 
     68 O          34.5622   29.5242    1.7451 O.2       11 UNK        -0.4999 
     69 C69        35.3513   26.6579    3.7859 C.3       12 UNK        -0.0954 
     70 S70        35.6765   25.0894    2.9055 S.3       12 UNK        -0.2268 
     71 C71        34.2787   24.0556    3.4615 C.3       12 UNK         0.0203 
     72 H72        31.2160   24.6456    4.7434 H         1 UNK         0.0888 
     73 H73        31.1120   24.7945    2.9831 H         1 UNK         0.0888 
     74 H74        30.1543   25.8515    4.0112 H         1 UNK         0.0888 
     75 H75        30.5024   22.4951    2.8037 H         1 UNK         0.3017 
     76 H76        28.0319   21.5908    4.0243 H         1 UNK         0.0873 
     77 H77        28.3961   19.4947    2.9774 H         1 UNK         0.0745 
     78 H78        29.9094   20.0172    3.6360 H         1 UNK         0.0745 
     79 H79        32.2663   19.5245    0.8160 H         1 UNK         0.0705 
     80 H80        31.9609   19.6974    2.5236 H         1 UNK         0.0705 
     81 H81        33.2001   21.5651    3.3386 H         1 UNK         0.1334 
     82 H82        33.5747   25.1629    1.0435 H         1 UNK         0.1417 
     83 H83        31.3192   21.8680   -0.5002 H         1 UNK         0.1562 
     84 H84        31.0088   24.1038   -1.4502 H         1 UNK         0.0748 
     85 H85        32.6863   24.0755   -1.9264 H         1 UNK         0.0748 
     86 H86        31.6845   26.4878    1.3099 H         1 UNK         0.0940 
     87 H87        30.2918   25.7504    0.5705 H         1 UNK         0.0940 
     88 H88        31.0461   28.6283   -0.1130 H         1 UNK         0.0703 
     89 H89        28.5633   27.0573   -0.3573 H         1 UNK         0.3081 
     90 H90        26.6951   29.7826   -1.6187 H         1 UNK         0.0719 
     91 H91        27.9309   29.1087   -3.6874 H         1 UNK         0.0809 
     92 H92        27.7843   27.4148   -3.2405 H         1 UNK         0.0809 
     93 H93        26.3446   28.3607   -3.6238 H         1 UNK         0.0809 
     94 H94        26.0818   27.0092   -1.4628 H         1 UNK         0.2990 
     95 H95        25.1671   26.8666    1.9605 H         1 UNK         0.0690 
     96 H96        23.1999   27.9502    0.8575 H         1 UNK         0.0788 
     97 H97        22.9728   26.2183    1.0254 H         1 UNK         0.0788 
     98 H98        23.3980   26.9056   -0.5429 H         1 UNK         0.0788 
     99 H99        24.8494   24.9021    0.0106 H         1 UNK         0.2993 
    100 H100       26.1095   23.0616    0.0319 H         1 UNK         0.0949 
    101 H101       28.0195   22.6664   -1.5811 H         1 UNK         0.0767 
    102 H102       27.0973   24.1047   -1.9883 H         1 UNK         0.0767 
    103 H103       28.6594   24.2640   -1.1992 H         1 UNK         0.0767 
    104 H104       28.8584   23.3151    1.1678 H         1 UNK         0.3013 
    105 H105       28.3341   27.4865    1.9207 H         1 UNK         0.3121 
    106 H106       29.4436   28.2962    4.3989 H         1 UNK         0.0774 
    107 H107       26.4984   27.9489    3.6327 H         1 UNK         0.0815 
    108 H108       27.5727   26.6676    4.1834 H         1 UNK         0.0815 
    109 H109       27.1475   27.9845    5.2645 H         1 UNK         0.0815 
    110 H110       27.0163   29.9321    2.3430 H         1 UNK         0.2987 
    111 H111       26.2085   31.9627    3.9414 H         1 UNK         0.0949 
    112 H112       25.4988   33.0851    1.7946 H         1 UNK         0.0806 
    113 H113       26.4680   31.9226    0.8970 H         1 UNK         0.0806 
    114 H114       25.0934   31.3784    1.8562 H         1 UNK         0.0806 
    115 H115       27.6224   33.0786    5.1417 H         1 UNK         0.3010 
    116 H116       28.9847   34.6503    5.8546 H         1 UNK         0.0829 
    117 H117       28.6015   36.0176    3.1393 H         1 UNK         0.0813 
    118 H118       27.4921   36.1501    4.5035 H         1 UNK         0.0813 
    119 H119       29.1216   36.7866    4.6311 H         1 UNK         0.0813 
    120 H120       30.1741   32.3271    4.4157 H         1 UNK         0.3038 
    121 H121       32.9323   33.4140    4.1110 H         1 UNK         0.0769 
    122 H122       31.4698   31.7349    2.0120 H         1 UNK         0.0811 
    123 H123       33.2036   32.0326    2.0093 H         1 UNK         0.0811 
    124 H124       32.0826   33.3726    1.8196 H         1 UNK         0.0811 
    125 H125       30.8483   30.6825    4.9103 H         1 UNK         0.3204 
    126 H126       31.0901   28.9032    6.1182 H         1 UNK         0.0748 
    127 H127       32.9140   28.6164    7.7512 H         1 UNK         0.0771 
    128 H128       33.8644   29.8707    6.9745 H         1 UNK         0.0771 
    129 H129       32.3411   30.2766    7.7652 H         1 UNK         0.0771 
    130 H130       33.8177   29.4323    3.9262 H         1 UNK         0.2980 
    131 H131       33.4464   26.8788    2.7778 H         1 UNK         0.0545 
    132 H132       35.4862   26.6409    0.9908 H         1 UNK         0.3459 
    133 H133       35.6087   28.1142    0.0589 H         1 UNK         0.3459 
    134 H134       35.0820   26.4023    4.8115 H         1 UNK         0.0616 
    135 H135       36.2856   27.2166    3.8634 H         1 UNK         0.0616 
    136 H136       34.6780   23.2752    4.1109 H         1 UNK         0.0634 
    137 H137       33.5998   24.6465    4.0764 H         1 UNK         0.0634 
@<TRIPOS>BOND
     1    1    2 1    
     2    1   72 1    
     3    1   73 1    
     4    1   74 1    
     5    2    3 2    
     6    2    4 am   BACKBONE|DICT|INTERRES
     7    4    5 1    
     8    4   75 1    
     9    5    6 1    
    10    5   35 1    
    11    5   76 1    
    12    6    7 1    
    13    6   77 1    
    14    6   78 1    
    15    7    8 1    
    16    8    9 1    
    17    8   79 1    
    18    8   80 1    
    19    9   10 ar   
    20    9   14 ar   
    21   10   11 ar   
    22   10   81 1    
    23   11   12 ar   
    24   11   71 1    
    25   12   13 ar   
    26   12   82 1    
    27   13   14 ar   
    28   13   15 1    
    29   14   83 1    
    30   15   16 1    
    31   15   84 1    
    32   15   85 1    
    33   16   17 1    
    34   17   18 1    
    35   17   86 1    
    36   17   87 1    
    37   18   19 1    
    38   18   37 1    
    39   18   88 1    
    40   19   20 am   BACKBONE|DICT|INTERRES
    41   19   89 1    
    42   20   21 2    
    43   20   22 1    
    44   22   23 1    
    45   22   24 1    
    46   22   90 1    
    47   23   91 1    
    48   23   92 1    
    49   23   93 1    
    50   24   25 am   BACKBONE|DICT|INTERRES
    51   24   94 1    
    52   25   26 2    
    53   25   27 1    
    54   27   28 1    
    55   27   29 1    
    56   27   95 1    
    57   28   96 1    
    58   28   97 1    
    59   28   98 1    
    60   29   30 am   BACKBONE|DICT|INTERRES
    61   29   99 1    
    62   30   31 2    
    63   30   32 1    
    64   32   33 1    
    65   32   34 1    
    66   32  100 1    
    67   33  101 1    
    68   33  102 1    
    69   33  103 1    
    70   34   35 am   BACKBONE|DICT|INTERRES
    71   34  104 1    
    72   35   36 2    
    73   37   38 2    
    74   37   39 am   BACKBONE|DICT|INTERRES
    75   39   40 1    
    76   39  105 1    
    77   40   41 1    
    78   40   42 1    
    79   40  106 1    
    80   41  107 1    
    81   41  108 1    
    82   41  109 1    
    83   42   43 2    
    84   42   44 am   BACKBONE|DICT|INTERRES
    85   44   45 1    
    86   44  110 1    
    87   45   46 1    
    88   45   47 1    
    89   45  111 1    
    90   46  112 1    
    91   46  113 1    
    92   46  114 1    
    93   47   48 2    
    94   47   49 am   BACKBONE|DICT|INTERRES
    95   49   50 1    
    96   49  115 1    
    97   50   51 1    
    98   50   52 1    
    99   50  116 1    
   100   51  117 1    
   101   51  118 1    
   102   51  119 1    
   103   52   53 2    
   104   52   54 am   BACKBONE|DICT|INTERRES
   105   54   55 1    
   106   54  120 1    
   107   55   56 1    
   108   55   57 1    
   109   55  121 1    
   110   56  122 1    
   111   56  123 1    
   112   56  124 1    
   113   57   58 2    
   114   57   59 am   BACKBONE|DICT|INTERRES
   115   59   60 1    
   116   59  125 1    
   117   60   61 1    
   118   60   62 1    
   119   60  126 1    
   120   61  127 1    
   121   61  128 1    
   122   61  129 1    
   123   62   63 2    
   124   62   64 am   BACKBONE|DICT|INTERRES
   125   64   65 1    
   126   64  130 1    
   127   65   66 1    
   128   65   69 1    
   129   65  131 1    
   130   66   67 am   BACKBONE|DICT|INTERRES
   131   66   68 2    
   132   67  132 1    
   133   67  133 1    
   134   69   70 1    
   135   69  134 1    
   136   69  135 1    
   137   70   71 1    
   138   71  136 1    
   139   71  137 1    
@<TRIPOS>SUBSTRUCTURE
     1 UNK         1 GROUP             0       ****    0 ROOT    
