@<TRIPOS>MOLECULE
3R136
137   139    1
SMALL
USER_CHARGES


@<TRIPOS>ATOM
      1 CA         33.5907   27.5705   -0.7865 C.3       0 UNK        -0.1979 
      2 C          32.4216   26.6044   -0.6893 C.2       0 UNK         0.4864 
      3 O          32.2697   25.7548   -1.5686 O.2       0 UNK        -0.5359 
      4 N          31.5777   26.7487    0.3461 N.am      1 UNK        -0.4318 
      5 CA         30.3386   25.9954    0.6033 C.3       1 UNK         0.0824 
      6 C6         30.5707   24.4589    0.6769 C.3       12 UNK        -0.0944 
      7 S7         29.1053   23.4955    1.1688 S.3       12 UNK        -0.2672 
      8 C8         29.6509   22.6897    2.7070 C.3       12 UNK         0.0333 
      9 C9         29.5859   23.6158    3.9146 C.ar      12 UNK        -0.0807 
     10 C10        30.7525   24.1815    4.4391 C.ar      12 UNK        -0.0894 
     11 C11        30.6995   24.9611    5.5986 C.ar      12 UNK        -0.0804 
     12 C12        29.4678   25.1977    6.2163 C.ar      12 UNK        -0.0824 
     13 C13        28.2923   24.6436    5.7022 C.ar      12 UNK        -0.0762 
     14 C14        28.3618   23.8493    4.5515 C.ar      12 UNK        -0.0782 
     15 C15        26.9781   24.8379    6.4557 C.3       12 UNK         0.0230 
     16 S16        25.5481   25.2224    5.3921 S.3       12 UNK        -0.2608 
     17 C17        25.8909   26.9364    4.8657 C.3       12 UNK        -0.0989 
     18 CA         26.2807   27.0770    3.3665 C.3       5 UNK         0.0716 
     19 N          25.2817   26.5216    2.4469 N.am      5 UNK        -0.4135 
     20 C          25.3717   25.3399    1.8322 C.2       4 UNK         0.5031 
     21 O          26.1714   24.4617    2.1470 O.2       4 UNK        -0.5229 
     22 CA         24.4660   25.1008    0.6177 C.3       4 UNK         0.0329 
     23 CB         23.6465   26.3308    0.1639 C.3       4 UNK        -0.2001 
     24 N          25.3508   24.6595   -0.4536 N.am      4 UNK        -0.4303 
     25 C          25.0126   23.9394   -1.5252 C.2       3 UNK         0.5044 
     26 O          23.8609   23.5710   -1.7652 O.2       3 UNK        -0.5152 
     27 CA         26.1650   23.5499   -2.4763 C.3       3 UNK         0.0319 
     28 CB         25.6783   23.2726   -3.9152 C.3       3 UNK        -0.2001 
     29 N          27.2917   24.4980   -2.4841 N.am      3 UNK        -0.4354 
     30 C          27.2612   25.7951   -2.8327 C.2       2 UNK         0.4964 
     31 O          26.2367   26.3981   -3.1564 O.2       2 UNK        -0.5047 
     32 CA         28.6185   26.5260   -2.8340 C.3       2 UNK         0.0288 
     33 CB         28.4952   28.0552   -3.0038 C.3       2 UNK        -0.2113 
     34 N          29.4653   26.1951   -1.6816 N.am      2 UNK        -0.4145 
     35 C          29.2171   26.4071   -0.3804 C.2       1 UNK         0.5006 
     36 O          28.1914   26.9430    0.0494 O.2       1 UNK        -0.5103 
     37 C          26.4998   28.5510    2.9569 C.2       5 UNK         0.5055 
     38 O          26.6191   29.4206    3.8215 O.2       5 UNK        -0.5220 
     39 N          26.4560   28.8233    1.6429 N.am      6 UNK        -0.4450 
     40 CA         26.3840   30.1701    1.0767 C.3       6 UNK         0.0367 
     41 CB         25.7127   30.1154   -0.3055 C.3       6 UNK        -0.1929 
     42 C          27.7607   30.8357    1.0001 C.2       6 UNK         0.5070 
     43 O          27.9120   31.9746    1.4434 O.2       6 UNK        -0.5237 
     44 N          28.7538   30.1069    0.4758 N.am      7 UNK        -0.4739 
     45 CA         30.1461   30.5538    0.4116 C.3       7 UNK         0.0276 
     46 CB         30.8072   30.0119   -0.8661 C.3       7 UNK        -0.1927 
     47 C          30.8719   30.1561    1.7060 C.2       7 UNK         0.5013 
     48 O          31.7616   29.3026    1.6920 O.2       7 UNK        -0.5193 
     49 N          30.4398   30.7711    2.8138 N.am      8 UNK        -0.4253 
     50 CA         30.9245   30.5166    4.1720 C.3       8 UNK         0.0242 
     51 CB         29.9151   31.0902    5.1791 C.3       8 UNK        -0.2000 
     52 C          32.3382   31.0584    4.4513 C.2       8 UNK         0.4948 
     53 O          32.9339   30.6796    5.4584 O.2       8 UNK        -0.5275 
     54 N          32.8701   31.9166    3.5679 N.am      9 UNK        -0.4246 
     55 CA         34.2109   32.5071    3.6668 C.3       9 UNK         0.0261 
     56 CB         34.4099   33.5063    2.5156 C.3       9 UNK        -0.1959 
     57 C          35.3554   31.4750    3.6864 C.2       9 UNK         0.5033 
     58 O          36.3981   31.7418    4.2854 O.2       9 UNK        -0.5390 
     59 N          35.1362   30.3123    3.0570 N.am      10 UNK        -0.4215 
     60 CA         36.0712   29.1857    3.0433 C.3       10 UNK         0.0240 
     61 CB         35.7276   28.2707    1.8591 C.3       10 UNK        -0.1982 
     62 C          36.0860   28.3732    4.3516 C.2       10 UNK         0.4970 
     63 O          37.0121   27.5835    4.5415 O.2       10 UNK        -0.4916 
     64 N          35.0749   28.5469    5.2144 N.am      11 UNK        -0.4279 
     65 CA         34.9264   27.8046    6.4764 C.3       11 UNK         0.1003 
     66 C          35.8883   28.2655    7.6107 C.2       11 UNK         0.5709 
     67 N          36.5920   29.3844    7.4777 N.am      11 UNK        -0.7358 
     68 O          36.0052   27.5871    8.6286 O.2       11 UNK        -0.4999 
     69 C69        33.4563   27.7870    6.9720 C.3       12 UNK        -0.0954 
     70 S70        32.2625   27.2264    5.7079 S.3       12 UNK        -0.2268 
     71 C71        31.9716   25.5118    6.2225 C.3       12 UNK         0.0203 
     72 H72        33.5004   28.3906   -0.0764 H         1 UNK         0.0888 
     73 H73        34.5263   27.0458   -0.5963 H         1 UNK         0.0888 
     74 H74        33.6388   28.0005   -1.7865 H         1 UNK         0.0888 
     75 H75        31.7383   27.5257    0.9847 H         1 UNK         0.3017 
     76 H76        30.0080   26.3156    1.5933 H         1 UNK         0.0873 
     77 H77        30.8990   24.0612   -0.2835 H         1 UNK         0.0745 
     78 H78        31.3845   24.2519    1.3728 H         1 UNK         0.0745 
     79 H79        29.0069   21.8277    2.8877 H         1 UNK         0.0705 
     80 H80        30.6566   22.2872    2.5762 H         1 UNK         0.0705 
     81 H81        31.7053   23.9903    3.9645 H         1 UNK         0.1334 
     82 H82        29.4329   25.7929    7.1189 H         1 UNK         0.1417 
     83 H83        27.4619   23.3973    4.1563 H         1 UNK         0.1562 
     84 H84        27.0726   25.6196    7.2111 H         1 UNK         0.0748 
     85 H85        26.7611   23.9171    6.9986 H         1 UNK         0.0748 
     86 H86        26.6796   27.3487    5.4980 H         1 UNK         0.0940 
     87 H87        24.9980   27.5270    5.0793 H         1 UNK         0.0940 
     88 H88        27.2383   26.5735    3.2124 H         1 UNK         0.0703 
     89 H89        24.5746   27.1723    2.1356 H         1 UNK         0.3081 
     90 H90        23.7829   24.2896    0.8777 H         1 UNK         0.0719 
     91 H91        24.2880   27.1649   -0.1234 H         1 UNK         0.0809 
     92 H92        23.0262   26.0890   -0.6994 H         1 UNK         0.0809 
     93 H93        22.9695   26.6729    0.9476 H         1 UNK         0.0809 
     94 H94        26.3306   24.8660   -0.3054 H         1 UNK         0.2990 
     95 H95        26.5655   22.6146   -2.0825 H         1 UNK         0.0690 
     96 H96        26.5024   22.9730   -4.5626 H         1 UNK         0.0788 
     97 H97        25.2050   24.1499   -4.3575 H         1 UNK         0.0788 
     98 H98        24.9456   22.4648   -3.9335 H         1 UNK         0.0788 
     99 H99        28.1848   24.1104   -2.2122 H         1 UNK         0.2993 
    100 H100       29.1460   26.1502   -3.7122 H         1 UNK         0.0949 
    101 H101       28.0119   28.5225   -2.1476 H         1 UNK         0.0767 
    102 H102       29.4747   28.5151   -3.1299 H         1 UNK         0.0767 
    103 H103       27.9093   28.3088   -3.8882 H         1 UNK         0.0767 
    104 H104       30.3815   25.8086   -1.9001 H         1 UNK         0.3013 
    105 H105       26.5035   28.0511    0.9889 H         1 UNK         0.3121 
    106 H106       25.7572   30.7885    1.7236 H         1 UNK         0.0774 
    107 H107       26.2314   29.4418   -0.9869 H         1 UNK         0.0815 
    108 H108       25.6943   31.1019   -0.7710 H         1 UNK         0.0815 
    109 H109       24.6792   29.7778   -0.2280 H         1 UNK         0.0815 
    110 H110       28.5599   29.1521    0.1991 H         1 UNK         0.2987 
    111 H111       30.1870   31.6438    0.3472 H         1 UNK         0.0949 
    112 H112       30.6888   28.9363   -0.9624 H         1 UNK         0.0806 
    113 H113       30.3681   30.4692   -1.7527 H         1 UNK         0.0806 
    114 H114       31.8745   30.2355   -0.8857 H         1 UNK         0.0806 
    115 H115       29.6735   31.4274    2.7175 H         1 UNK         0.3010 
    116 H116       30.9624   29.4350    4.3105 H         1 UNK         0.0829 
    117 H117       28.9262   30.6513    5.0426 H         1 UNK         0.0813 
    118 H118       30.2226   30.8770    6.2040 H         1 UNK         0.0813 
    119 H119       29.8197   32.1725    5.0843 H         1 UNK         0.0813 
    120 H120       32.3087   32.1896    2.7750 H         1 UNK         0.3038 
    121 H121       34.2565   33.0564    4.6096 H         1 UNK         0.0769 
    122 H122       34.3431   33.0200    1.5415 H         1 UNK         0.0811 
    123 H123       35.3907   33.9805    2.5761 H         1 UNK         0.0811 
    124 H124       33.6662   34.3028    2.5468 H         1 UNK         0.0811 
    125 H125       34.2443   30.1728    2.6018 H         1 UNK         0.3204 
    126 H126       37.0803   29.5747    2.8907 H         1 UNK         0.0748 
    127 H127       36.4336   27.4422    1.7849 H         1 UNK         0.0771 
    128 H128       34.7307   27.8404    1.9641 H         1 UNK         0.0771 
    129 H129       35.7706   28.8144    0.9153 H         1 UNK         0.0771 
    130 H130       34.3588   29.2403    5.0311 H         1 UNK         0.2980 
    131 H131       35.1972   26.7674    6.2695 H         1 UNK         0.0545 
    132 H132       37.2143   29.6680    8.2178 H         1 UNK         0.3459 
    133 H133       36.5020   29.9484    6.6470 H         1 UNK         0.3459 
    134 H134       33.3613   27.1580    7.8585 H         1 UNK         0.0616 
    135 H135       33.1550   28.7865    7.2889 H         1 UNK         0.0616 
    136 H136       32.8339   24.9027    5.9473 H         1 UNK         0.0634 
    137 H137       31.8891   25.4589    7.3091 H         1 UNK         0.0634 
@<TRIPOS>BOND
     1    1    2 1    
     2    1   72 1    
     3    1   73 1    
     4    1   74 1    
     5    2    3 2    
     6    2    4 am   BACKBONE|DICT|INTERRES
     7    4    5 1    
     8    4   75 1    
     9    5    6 1    
    10    5   35 1    
    11    5   76 1    
    12    6    7 1    
    13    6   77 1    
    14    6   78 1    
    15    7    8 1    
    16    8    9 1    
    17    8   79 1    
    18    8   80 1    
    19    9   10 ar   
    20    9   14 ar   
    21   10   11 ar   
    22   10   81 1    
    23   11   12 ar   
    24   11   71 1    
    25   12   13 ar   
    26   12   82 1    
    27   13   14 ar   
    28   13   15 1    
    29   14   83 1    
    30   15   16 1    
    31   15   84 1    
    32   15   85 1    
    33   16   17 1    
    34   17   18 1    
    35   17   86 1    
    36   17   87 1    
    37   18   19 1    
    38   18   37 1    
    39   18   88 1    
    40   19   20 am   BACKBONE|DICT|INTERRES
    41   19   89 1    
    42   20   21 2    
    43   20   22 1    
    44   22   23 1    
    45   22   24 1    
    46   22   90 1    
    47   23   91 1    
    48   23   92 1    
    49   23   93 1    
    50   24   25 am   BACKBONE|DICT|INTERRES
    51   24   94 1    
    52   25   26 2    
    53   25   27 1    
    54   27   28 1    
    55   27   29 1    
    56   27   95 1    
    57   28   96 1    
    58   28   97 1    
    59   28   98 1    
    60   29   30 am   BACKBONE|DICT|INTERRES
    61   29   99 1    
    62   30   31 2    
    63   30   32 1    
    64   32   33 1    
    65   32   34 1    
    66   32  100 1    
    67   33  101 1    
    68   33  102 1    
    69   33  103 1    
    70   34   35 am   BACKBONE|DICT|INTERRES
    71   34  104 1    
    72   35   36 2    
    73   37   38 2    
    74   37   39 am   BACKBONE|DICT|INTERRES
    75   39   40 1    
    76   39  105 1    
    77   40   41 1    
    78   40   42 1    
    79   40  106 1    
    80   41  107 1    
    81   41  108 1    
    82   41  109 1    
    83   42   43 2    
    84   42   44 am   BACKBONE|DICT|INTERRES
    85   44   45 1    
    86   44  110 1    
    87   45   46 1    
    88   45   47 1    
    89   45  111 1    
    90   46  112 1    
    91   46  113 1    
    92   46  114 1    
    93   47   48 2    
    94   47   49 am   BACKBONE|DICT|INTERRES
    95   49   50 1    
    96   49  115 1    
    97   50   51 1    
    98   50   52 1    
    99   50  116 1    
   100   51  117 1    
   101   51  118 1    
   102   51  119 1    
   103   52   53 2    
   104   52   54 am   BACKBONE|DICT|INTERRES
   105   54   55 1    
   106   54  120 1    
   107   55   56 1    
   108   55   57 1    
   109   55  121 1    
   110   56  122 1    
   111   56  123 1    
   112   56  124 1    
   113   57   58 2    
   114   57   59 am   BACKBONE|DICT|INTERRES
   115   59   60 1    
   116   59  125 1    
   117   60   61 1    
   118   60   62 1    
   119   60  126 1    
   120   61  127 1    
   121   61  128 1    
   122   61  129 1    
   123   62   63 2    
   124   62   64 am   BACKBONE|DICT|INTERRES
   125   64   65 1    
   126   64  130 1    
   127   65   66 1    
   128   65   69 1    
   129   65  131 1    
   130   66   67 am   BACKBONE|DICT|INTERRES
   131   66   68 2    
   132   67  132 1    
   133   67  133 1    
   134   69   70 1    
   135   69  134 1    
   136   69  135 1    
   137   70   71 1    
   138   71  136 1    
   139   71  137 1    
@<TRIPOS>SUBSTRUCTURE
     1 UNK         1 GROUP             0       ****    0 ROOT    
