@<TRIPOS>MOLECULE
3R136
137   139    1
SMALL
USER_CHARGES


@<TRIPOS>ATOM
      1 CA         24.9571   28.0366    2.2609 C.3       0 UNK        -0.1979 
      2 C          25.2600   26.5750    2.5549 C.2       0 UNK         0.4864 
      3 O          24.3388   25.8019    2.8207 O.2       0 UNK        -0.5359 
      4 N          26.5383   26.1840    2.4845 N.am      1 UNK        -0.4318 
      5 CA         27.0340   24.8186    2.6804 C.3       1 UNK         0.0824 
      6 C6         28.5764   24.7789    2.7994 C.3       12 UNK        -0.0944 
      7 S7         29.1641   25.6731    4.2757 S.3       12 UNK        -0.2672 
      8 C8         30.8290   24.9516    4.4899 C.3       12 UNK         0.0333 
      9 C9         31.9136   25.4476    3.5279 C.ar      12 UNK        -0.0807 
     10 C10        33.1877   24.8753    3.6227 C.ar      12 UNK        -0.0894 
     11 C11        34.2316   25.2885    2.7882 C.ar      12 UNK        -0.0804 
     12 C12        33.9872   26.2838    1.8360 C.ar      12 UNK        -0.0824 
     13 C13        32.7281   26.8780    1.7344 C.ar      12 UNK        -0.0762 
     14 C14        31.6970   26.4598    2.5815 C.ar      12 UNK        -0.0782 
     15 C15        32.4975   28.0065    0.7406 C.3       12 UNK         0.0230 
     16 S16        32.2039   27.4154   -0.9567 S.3       12 UNK        -0.2608 
     17 C17        30.6420   26.4861   -0.7997 C.3       12 UNK        -0.0989 
     18 CA         29.3905   27.3060   -1.2042 C.3       5 UNK         0.0716 
     19 N          28.2936   26.4293   -1.6064 N.am      5 UNK        -0.4135 
     20 C          28.0945   25.9653   -2.8449 C.2       4 UNK         0.5031 
     21 O          28.8169   26.2493   -3.8016 O.2       4 UNK        -0.5229 
     22 CA         26.9079   25.0167   -3.0745 C.3       4 UNK         0.0329 
     23 CB         27.4008   23.5601   -3.1145 C.3       4 UNK        -0.2001 
     24 N          25.8764   25.1273   -2.0411 N.am      4 UNK        -0.4303 
     25 C          24.6827   25.7176   -2.2036 C.2       3 UNK         0.5044 
     26 O          24.3739   26.3453   -3.2180 O.2       3 UNK        -0.5152 
     27 CA         23.6522   25.5936   -1.0540 C.3       3 UNK         0.0319 
     28 CB         22.2051   25.4674   -1.5747 C.3       3 UNK        -0.2001 
     29 N          23.9491   24.5274   -0.0868 N.am      3 UNK        -0.4354 
     30 C          24.0884   23.2115   -0.3261 C.2       2 UNK         0.4964 
     31 O          23.8056   22.6770   -1.3991 O.2       2 UNK        -0.5047 
     32 CA         24.7047   22.3612    0.8094 C.3       2 UNK         0.0288 
     33 CB         25.5490   21.1887    0.2651 C.3       2 UNK        -0.2113 
     34 N          25.4888   23.1471    1.7771 N.am      2 UNK        -0.4145 
     35 C          26.5411   23.9413    1.5173 C.2       1 UNK         0.5006 
     36 O          27.0478   24.0780    0.4003 O.2       1 UNK        -0.5103 
     37 C          28.8686   28.1946   -0.0650 C.2       5 UNK         0.5055 
     38 O          28.1049   27.7086    0.7712 O.2       5 UNK        -0.5220 
     39 N          29.2634   29.4740   -0.0529 N.am      6 UNK        -0.4450 
     40 CA         28.8179   30.4747    0.9202 C.3       6 UNK         0.0367 
     41 CB         29.3075   31.8650    0.4802 C.3       6 UNK        -0.1929 
     42 C          29.3021   30.1587    2.3448 C.2       6 UNK         0.5070 
     43 O          30.5035   30.2212    2.6047 O.2       6 UNK        -0.5237 
     44 N          28.3625   29.8747    3.2563 N.am      7 UNK        -0.4739 
     45 CA         28.6337   29.5255    4.6583 C.3       7 UNK         0.0276 
     46 CB         27.3294   29.0646    5.3275 C.3       7 UNK        -0.1927 
     47 C          29.3065   30.6447    5.4780 C.2       7 UNK         0.5013 
     48 O          29.9287   30.3566    6.4999 O.2       7 UNK        -0.5193 
     49 N          29.2069   31.8931    5.0008 N.am      8 UNK        -0.4253 
     50 CA         29.9304   33.0539    5.5245 C.3       8 UNK         0.0242 
     51 CB         29.3179   34.3325    4.9290 C.3       8 UNK        -0.2000 
     52 C          31.4488   33.0104    5.2545 C.2       8 UNK         0.4948 
     53 O          32.1897   33.7271    5.9282 O.2       8 UNK        -0.5275 
     54 N          31.8883   32.1889    4.2906 N.am      9 UNK        -0.4246 
     55 CA         33.2849   32.0016    3.9006 C.3       9 UNK         0.0261 
     56 CB         33.4999   32.6180    2.5051 C.3       9 UNK        -0.1959 
     57 C          33.6380   30.5060    3.9483 C.2       9 UNK         0.5033 
     58 O          34.2734   29.9939    3.0238 O.2       9 UNK        -0.5390 
     59 N          33.2089   29.8247    5.0208 N.am      10 UNK        -0.4215 
     60 CA         33.3409   28.3808    5.2370 C.3       10 UNK         0.0240 
     61 CB         32.3329   27.9376    6.3139 C.3       10 UNK        -0.1982 
     62 C          34.7774   27.9063    5.5349 C.2       10 UNK         0.4970 
     63 O          35.0206   27.3150    6.5893 O.2       10 UNK        -0.4916 
     64 N          35.6954   28.1658    4.5963 N.am      11 UNK        -0.4279 
     65 CA         37.1216   27.8098    4.6417 C.3       11 UNK         0.1003 
     66 C          37.8712   28.4361    5.8615 C.2       11 UNK         0.5709 
     67 N          38.9853   27.8670    6.3044 N.am      11 UNK        -0.7358 
     68 O          37.4871   29.4855    6.3764 O.2       11 UNK        -0.4999 
     69 C69        37.3423   26.2780    4.4438 C.3       12 UNK        -0.0954 
     70 S70        37.0133   25.7524    2.7269 S.3       12 UNK        -0.2268 
     71 C71        35.5965   24.6107    2.8870 C.3       12 UNK         0.0203 
     72 H72        25.8205   28.5563    1.8483 H         1 UNK         0.0888 
     73 H73        24.1429   28.1153    1.5413 H         1 UNK         0.0888 
     74 H74        24.6541   28.5462    3.1749 H         1 UNK         0.0888 
     75 H75        27.2310   26.8401    2.1284 H         1 UNK         0.3017 
     76 H76        26.6122   24.4338    3.6115 H         1 UNK         0.0873 
     77 H77        29.0460   25.2112    1.9146 H         1 UNK         0.0745 
     78 H78        28.9233   23.7456    2.8591 H         1 UNK         0.0745 
     79 H79        30.7545   23.8655    4.4195 H         1 UNK         0.0705 
     80 H80        31.1515   25.1650    5.5090 H         1 UNK         0.0705 
     81 H81        33.3664   24.0971    4.3525 H         1 UNK         0.1334 
     82 H82        34.7793   26.6063    1.1745 H         1 UNK         0.1417 
     83 H83        30.7353   26.9465    2.5041 H         1 UNK         0.1562 
     84 H84        33.3661   28.6666    0.7366 H         1 UNK         0.0748 
     85 H85        31.6610   28.6241    1.0558 H         1 UNK         0.0748 
     86 H86        30.5339   26.0489    0.1919 H         1 UNK         0.0940 
     87 H87        30.7464   25.6305   -1.4688 H         1 UNK         0.0940 
     88 H88        29.6377   27.9538   -2.0485 H         1 UNK         0.0703 
     89 H89        27.6577   26.1754   -0.8610 H         1 UNK         0.3081 
     90 H90        26.4866   25.2544   -4.0536 H         1 UNK         0.0719 
     91 H91        28.1493   23.4205   -3.8957 H         1 UNK         0.0809 
     92 H92        27.8549   23.2611   -2.1687 H         1 UNK         0.0809 
     93 H93        26.5815   22.8716   -3.3231 H         1 UNK         0.0809 
     94 H94        26.0766   24.6529   -1.1646 H         1 UNK         0.2990 
     95 H95        23.7193   26.5285   -0.4963 H         1 UNK         0.0690 
     96 H96        21.4925   25.3981   -0.7529 H         1 UNK         0.0788 
     97 H97        22.0771   24.5872   -2.2054 H         1 UNK         0.0788 
     98 H98        21.9244   26.3366   -2.1708 H         1 UNK         0.0788 
     99 H99        24.1655   24.8473    0.8508 H         1 UNK         0.2993 
    100 H100       23.8625   21.9403    1.3609 H         1 UNK         0.0949 
    101 H101       26.3705   21.5386   -0.3613 H         1 UNK         0.0767 
    102 H102       25.9739   20.5961    1.0753 H         1 UNK         0.0767 
    103 H103       24.9422   20.5152   -0.3416 H         1 UNK         0.0767 
    104 H104       25.1118   23.1667    2.7157 H         1 UNK         0.3013 
    105 H105       29.9207   29.7876   -0.7525 H         1 UNK         0.3121 
    106 H106       27.7259   30.4847    0.9125 H         1 UNK         0.0774 
    107 H107       28.9826   32.6345    1.1819 H         1 UNK         0.0815 
    108 H108       30.3962   31.9132    0.4277 H         1 UNK         0.0815 
    109 H109       28.9119   32.1346   -0.4991 H         1 UNK         0.0815 
    110 H110       27.3955   29.8605    2.9681 H         1 UNK         0.2987 
    111 H111       29.3287   28.6835    4.6530 H         1 UNK         0.0949 
    112 H112       26.9198   28.1853    4.8304 H         1 UNK         0.0806 
    113 H113       27.5018   28.7895    6.3691 H         1 UNK         0.0806 
    114 H114       26.5695   29.8467    5.3172 H         1 UNK         0.0806 
    115 H115       28.6629   32.0339    4.1625 H         1 UNK         0.3010 
    116 H116       29.7932   33.0784    6.6078 H         1 UNK         0.0829 
    117 H117       29.4183   34.3611    3.8432 H         1 UNK         0.0813 
    118 H118       29.8104   35.2220    5.3247 H         1 UNK         0.0813 
    119 H119       28.2586   34.4170    5.1724 H         1 UNK         0.0813 
    120 H120       31.2264   31.5921    3.7992 H         1 UNK         0.3038 
    121 H121       33.9534   32.5020    4.6040 H         1 UNK         0.0769 
    122 H122       33.2475   33.6783    2.4971 H         1 UNK         0.0811 
    123 H123       32.8877   32.1210    1.7510 H         1 UNK         0.0811 
    124 H124       34.5413   32.5304    2.1928 H         1 UNK         0.0811 
    125 H125       32.7027   30.3348    5.7308 H         1 UNK         0.3204 
    126 H126       33.0579   27.8947    4.3080 H         1 UNK         0.0748 
    127 H127       32.4721   28.4826    7.2480 H         1 UNK         0.0771 
    128 H128       31.3076   28.0916    5.9804 H         1 UNK         0.0771 
    129 H129       32.4348   26.8755    6.5379 H         1 UNK         0.0771 
    130 H130       35.3912   28.7128    3.7945 H         1 UNK         0.2980 
    131 H131       37.5658   28.3180    3.7852 H         1 UNK         0.0545 
    132 H132       39.4768   28.2913    7.0754 H         1 UNK         0.3459 
    133 H133       39.3423   27.0230    5.8858 H         1 UNK         0.3459 
    134 H134       36.7388   25.7004    5.1451 H         1 UNK         0.0616 
    135 H135       38.3770   25.9944    4.6359 H         1 UNK         0.0616 
    136 H136       35.6893   24.0490    3.8176 H         1 UNK         0.0634 
    137 H137       35.6626   23.8772    2.0827 H         1 UNK         0.0634 
@<TRIPOS>BOND
     1    1    2 1    
     2    1   72 1    
     3    1   73 1    
     4    1   74 1    
     5    2    3 2    
     6    2    4 am   BACKBONE|DICT|INTERRES
     7    4    5 1    
     8    4   75 1    
     9    5    6 1    
    10    5   35 1    
    11    5   76 1    
    12    6    7 1    
    13    6   77 1    
    14    6   78 1    
    15    7    8 1    
    16    8    9 1    
    17    8   79 1    
    18    8   80 1    
    19    9   10 ar   
    20    9   14 ar   
    21   10   11 ar   
    22   10   81 1    
    23   11   12 ar   
    24   11   71 1    
    25   12   13 ar   
    26   12   82 1    
    27   13   14 ar   
    28   13   15 1    
    29   14   83 1    
    30   15   16 1    
    31   15   84 1    
    32   15   85 1    
    33   16   17 1    
    34   17   18 1    
    35   17   86 1    
    36   17   87 1    
    37   18   19 1    
    38   18   37 1    
    39   18   88 1    
    40   19   20 am   BACKBONE|DICT|INTERRES
    41   19   89 1    
    42   20   21 2    
    43   20   22 1    
    44   22   23 1    
    45   22   24 1    
    46   22   90 1    
    47   23   91 1    
    48   23   92 1    
    49   23   93 1    
    50   24   25 am   BACKBONE|DICT|INTERRES
    51   24   94 1    
    52   25   26 2    
    53   25   27 1    
    54   27   28 1    
    55   27   29 1    
    56   27   95 1    
    57   28   96 1    
    58   28   97 1    
    59   28   98 1    
    60   29   30 am   BACKBONE|DICT|INTERRES
    61   29   99 1    
    62   30   31 2    
    63   30   32 1    
    64   32   33 1    
    65   32   34 1    
    66   32  100 1    
    67   33  101 1    
    68   33  102 1    
    69   33  103 1    
    70   34   35 am   BACKBONE|DICT|INTERRES
    71   34  104 1    
    72   35   36 2    
    73   37   38 2    
    74   37   39 am   BACKBONE|DICT|INTERRES
    75   39   40 1    
    76   39  105 1    
    77   40   41 1    
    78   40   42 1    
    79   40  106 1    
    80   41  107 1    
    81   41  108 1    
    82   41  109 1    
    83   42   43 2    
    84   42   44 am   BACKBONE|DICT|INTERRES
    85   44   45 1    
    86   44  110 1    
    87   45   46 1    
    88   45   47 1    
    89   45  111 1    
    90   46  112 1    
    91   46  113 1    
    92   46  114 1    
    93   47   48 2    
    94   47   49 am   BACKBONE|DICT|INTERRES
    95   49   50 1    
    96   49  115 1    
    97   50   51 1    
    98   50   52 1    
    99   50  116 1    
   100   51  117 1    
   101   51  118 1    
   102   51  119 1    
   103   52   53 2    
   104   52   54 am   BACKBONE|DICT|INTERRES
   105   54   55 1    
   106   54  120 1    
   107   55   56 1    
   108   55   57 1    
   109   55  121 1    
   110   56  122 1    
   111   56  123 1    
   112   56  124 1    
   113   57   58 2    
   114   57   59 am   BACKBONE|DICT|INTERRES
   115   59   60 1    
   116   59  125 1    
   117   60   61 1    
   118   60   62 1    
   119   60  126 1    
   120   61  127 1    
   121   61  128 1    
   122   61  129 1    
   123   62   63 2    
   124   62   64 am   BACKBONE|DICT|INTERRES
   125   64   65 1    
   126   64  130 1    
   127   65   66 1    
   128   65   69 1    
   129   65  131 1    
   130   66   67 am   BACKBONE|DICT|INTERRES
   131   66   68 2    
   132   67  132 1    
   133   67  133 1    
   134   69   70 1    
   135   69  134 1    
   136   69  135 1    
   137   70   71 1    
   138   71  136 1    
   139   71  137 1    
@<TRIPOS>SUBSTRUCTURE
     1 UNK         1 GROUP             0       ****    0 ROOT    
