@<TRIPOS>MOLECULE
3R136
137   139    1
SMALL
USER_CHARGES


@<TRIPOS>ATOM
      1 CA         28.9831   17.6493    1.2562 C.3       0 UNK        -0.1979 
      2 C          28.7969   18.5308    0.0298 C.2       0 UNK         0.4864 
      3 O          28.2200   18.0830   -0.9629 O.2       0 UNK        -0.5359 
      4 N          29.2890   19.7753    0.0890 N.am      1 UNK        -0.4318 
      5 CA         29.1413   20.7864   -0.9632 C.3       1 UNK         0.0824 
      6 C6         30.2927   21.8339   -0.8994 C.3       12 UNK        -0.0944 
      7 S7         30.0391   23.2963    0.1706 S.3       12 UNK        -0.2672 
      8 C8         30.5786   22.6842    1.7904 C.3       12 UNK         0.0333 
      9 C9         30.7509   23.8428    2.7577 C.ar      12 UNK        -0.0807 
     10 C10        31.9535   24.5527    2.7715 C.ar      12 UNK        -0.0894 
     11 C11        32.1353   25.6232    3.6490 C.ar      12 UNK        -0.0804 
     12 C12        31.1072   25.9744    4.5284 C.ar      12 UNK        -0.0824 
     13 C13        29.8989   25.2673    4.5315 C.ar      12 UNK        -0.0762 
     14 C14        29.7246   24.2050    3.6369 C.ar      12 UNK        -0.0782 
     15 C15        28.8052   25.6082    5.5378 C.3       12 UNK         0.0230 
     16 S16        27.6233   26.8480    4.9136 S.3       12 UNK        -0.2608 
     17 C17        28.5904   28.3967    5.0636 C.3       12 UNK        -0.0989 
     18 CA         28.8261   29.1332    3.7189 C.3       5 UNK         0.0716 
     19 N          29.1270   28.2081    2.6240 N.am      5 UNK        -0.4135 
     20 C          29.4583   28.5514    1.3751 C.2       4 UNK         0.5031 
     21 O          29.7056   29.7097    1.0402 O.2       4 UNK        -0.5229 
     22 CA         29.4472   27.4365    0.3095 C.3       4 UNK         0.0329 
     23 CB         30.8766   26.9578    0.0182 C.3       4 UNK        -0.2001 
     24 N          28.5925   26.2816    0.6343 N.am      4 UNK        -0.4303 
     25 C          27.2764   26.3494    0.8879 C.2       3 UNK         0.5044 
     26 O          26.6462   27.4069    0.8920 O.2       3 UNK        -0.5152 
     27 CA         26.5571   25.0289    1.2208 C.3       3 UNK         0.0319 
     28 CB         25.1211   25.2563    1.7370 C.3       3 UNK        -0.2001 
     29 N          26.5446   24.0687    0.1120 N.am      3 UNK        -0.4354 
     30 C          26.1365   24.2506   -1.1535 C.2       2 UNK         0.4964 
     31 O          25.7248   25.3244   -1.5949 O.2       2 UNK        -0.5047 
     32 CA         26.1866   23.0132   -2.0831 C.3       2 UNK         0.0288 
     33 CB         25.9823   23.3779   -3.5665 C.3       2 UNK        -0.2113 
     34 N          27.4265   22.2365   -1.9579 N.am      2 UNK        -0.4145 
     35 C          27.7260   21.4084   -0.9479 C.2       1 UNK         0.5006 
     36 O          26.9595   21.1977   -0.0026 O.2       1 UNK        -0.5103 
     37 C          27.6746   30.1159    3.4004 C.2       5 UNK         0.5055 
     38 O          27.7187   31.2490    3.8805 O.2       5 UNK        -0.5220 
     39 N          26.7009   29.7181    2.5643 N.am      6 UNK        -0.4450 
     40 CA         25.6306   30.5966    2.0746 C.3       6 UNK         0.0367 
     41 CB         24.4923   29.7519    1.4804 C.3       6 UNK        -0.1929 
     42 C          26.1293   31.6323    1.0484 C.2       6 UNK         0.5070 
     43 O          25.4936   32.6738    0.8887 O.2       6 UNK        -0.5237 
     44 N          27.2720   31.3542    0.4047 N.am      7 UNK        -0.4739 
     45 CA         28.0147   32.2822   -0.4529 C.3       7 UNK         0.0276 
     46 CB         28.6002   31.5031   -1.6448 C.3       7 UNK        -0.1927 
     47 C          29.1123   33.0331    0.3315 C.2       7 UNK         0.5013 
     48 O          29.9651   33.6698   -0.2884 O.2       7 UNK        -0.5193 
     49 N          29.0677   32.9524    1.6710 N.am      8 UNK        -0.4253 
     50 CA         29.9499   33.5928    2.6493 C.3       8 UNK         0.0242 
     51 CB         29.8856   35.1322    2.5400 C.3       8 UNK        -0.2000 
     52 C          31.3906   33.0479    2.6605 C.2       8 UNK         0.4948 
     53 O          32.3029   33.7786    3.0537 O.2       8 UNK        -0.5275 
     54 N          31.5894   31.7758    2.2788 N.am      9 UNK        -0.4246 
     55 CA         32.8677   31.0810    2.4486 C.3       9 UNK         0.0261 
     56 CB         32.9198   29.8309    1.5537 C.3       9 UNK        -0.1959 
     57 C          33.0690   30.7196    3.9298 C.2       9 UNK         0.5033 
     58 O          32.4703   29.7571    4.4135 O.2       9 UNK        -0.5390 
     59 N          33.8955   31.5018    4.6311 N.am      10 UNK        -0.4215 
     60 CA         34.2502   31.2957    6.0361 C.3       10 UNK         0.0240 
     61 CB         34.5029   32.6669    6.6920 C.3       10 UNK        -0.1982 
     62 C          35.4575   30.3476    6.1499 C.2       10 UNK         0.4970 
     63 O          36.5240   30.7615    6.6097 O.2       10 UNK        -0.4916 
     64 N          35.2826   29.1041    5.6862 N.am      11 UNK        -0.4279 
     65 CA         36.3036   28.0477    5.7353 C.3       11 UNK         0.1003 
     66 C          36.6073   27.5385    7.1748 C.2       11 UNK         0.5709 
     67 N          37.7551   26.9045    7.3760 N.am      11 UNK        -0.7358 
     68 O          35.8131   27.6920    8.1020 O.2       11 UNK        -0.4999 
     69 C69        35.9926   26.8980    4.7394 C.3       12 UNK        -0.0954 
     70 S70        34.4589   25.9721    5.0936 S.3       12 UNK        -0.2268 
     71 C71        33.4443   26.3955    3.6468 C.3       12 UNK         0.0203 
     72 H72        29.5435   16.7527    0.9926 H         1 UNK         0.0888 
     73 H73        29.5222   18.1642    2.0512 H         1 UNK         0.0888 
     74 H74        28.0135   17.3430    1.6478 H         1 UNK         0.0888 
     75 H75        29.7241   20.0922    0.9418 H         1 UNK         0.3017 
     76 H76        29.2366   20.2674   -1.9200 H         1 UNK         0.0873 
     77 H77        31.2364   21.3532   -0.6360 H         1 UNK         0.0745 
     78 H78        30.4581   22.2261   -1.9042 H         1 UNK         0.0745 
     79 H79        29.8473   21.9711    2.1733 H         1 UNK         0.0705 
     80 H80        31.5216   22.1447    1.6877 H         1 UNK         0.0705 
     81 H81        32.7464   24.2738    2.0907 H         1 UNK         0.1334 
     82 H82        31.2673   26.7875    5.2222 H         1 UNK         0.1417 
     83 H83        28.7975   23.6480    3.6389 H         1 UNK         0.1562 
     84 H84        29.2452   25.9580    6.4730 H         1 UNK         0.0748 
     85 H85        28.2506   24.7039    5.7932 H         1 UNK         0.0748 
     86 H86        29.5554   28.1785    5.5181 H         1 UNK         0.0940 
     87 H87        28.0946   29.0447    5.7898 H         1 UNK         0.0940 
     88 H88        29.7161   29.7541    3.8432 H         1 UNK         0.0703 
     89 H89        28.9500   27.2339    2.8233 H         1 UNK         0.3081 
     90 H90        29.0471   27.8797   -0.6047 H         1 UNK         0.0719 
     91 H91        31.3403   26.5170    0.8996 H         1 UNK         0.0809 
     92 H92        30.8944   26.2150   -0.7794 H         1 UNK         0.0809 
     93 H93        31.5078   27.7878   -0.3015 H         1 UNK         0.0809 
     94 H94        29.0403   25.3731    0.6329 H         1 UNK         0.2990 
     95 H95        27.1239   24.5631    2.0277 H         1 UNK         0.0690 
     96 H96        24.6554   24.3189    2.0406 H         1 UNK         0.0788 
     97 H97        24.4868   25.7159    0.9778 H         1 UNK         0.0788 
     98 H98        25.1188   25.9156    2.6063 H         1 UNK         0.0788 
     99 H99        26.8427   23.1270    0.3481 H         1 UNK         0.2993 
    100 H100       25.3524   22.3735   -1.7862 H         1 UNK         0.0949 
    101 H101       25.9747   22.4885   -4.1970 H         1 UNK         0.0767 
    102 H102       25.0286   23.8852   -3.7192 H         1 UNK         0.0767 
    103 H103       26.7679   24.0417   -3.9298 H         1 UNK         0.0767 
    104 H104       28.1254   22.4018   -2.6679 H         1 UNK         0.3013 
    105 H105       26.7370   28.7873    2.1519 H         1 UNK         0.3121 
    106 H106       25.2291   31.1473    2.9281 H         1 UNK         0.0774 
    107 H107       24.8017   29.2386    0.5694 H         1 UNK         0.0815 
    108 H108       23.6386   30.3796    1.2222 H         1 UNK         0.0815 
    109 H109       24.1414   29.0000    2.1873 H         1 UNK         0.0815 
    110 H110       27.7548   30.4911    0.6254 H         1 UNK         0.2987 
    111 H111       27.3346   33.0394   -0.8491 H         1 UNK         0.0949 
    112 H112       29.3522   30.7799   -1.3288 H         1 UNK         0.0806 
    113 H113       27.8232   30.9641   -2.1869 H         1 UNK         0.0806 
    114 H114       29.0792   32.1777   -2.3555 H         1 UNK         0.0806 
    115 H115       28.3380   32.3792    2.0765 H         1 UNK         0.3010 
    116 H116       29.5390   33.3275    3.6244 H         1 UNK         0.0829 
    117 H117       30.3563   35.4944    1.6257 H         1 UNK         0.0813 
    118 H118       28.8558   35.4891    2.5529 H         1 UNK         0.0813 
    119 H119       30.4000   35.6061    3.3770 H         1 UNK         0.0813 
    120 H120       30.8089   31.2198    1.9440 H         1 UNK         0.3038 
    121 H121       33.6729   31.7454    2.1270 H         1 UNK         0.0769 
    122 H122       33.9148   29.3851    1.5712 H         1 UNK         0.0811 
    123 H123       32.2218   29.0633    1.8853 H         1 UNK         0.0811 
    124 H124       32.6875   30.0719    0.5163 H         1 UNK         0.0811 
    125 H125       34.3296   32.2870    4.1653 H         1 UNK         0.3204 
    126 H126       33.4157   30.8273    6.5629 H         1 UNK         0.0748 
    127 H127       34.7503   32.5547    7.7486 H         1 UNK         0.0771 
    128 H128       35.3282   33.1992    6.2173 H         1 UNK         0.0771 
    129 H129       33.6183   33.3015    6.6334 H         1 UNK         0.0771 
    130 H130       34.3690   28.8367    5.3440 H         1 UNK         0.2980 
    131 H131       37.2291   28.5107    5.3866 H         1 UNK         0.0545 
    132 H132       37.9676   26.5592    8.2989 H         1 UNK         0.3459 
    133 H133       38.4134   26.7646    6.6255 H         1 UNK         0.3459 
    134 H134       35.9452   27.3022    3.7271 H         1 UNK         0.0616 
    135 H135       36.8161   26.1823    4.7225 H         1 UNK         0.0616 
    136 H136       34.0084   26.1850    2.7368 H         1 UNK         0.0634 
    137 H137       33.2408   27.4644    3.6419 H         1 UNK         0.0634 
@<TRIPOS>BOND
     1    1    2 1    
     2    1   72 1    
     3    1   73 1    
     4    1   74 1    
     5    2    3 2    
     6    2    4 am   BACKBONE|DICT|INTERRES
     7    4    5 1    
     8    4   75 1    
     9    5    6 1    
    10    5   35 1    
    11    5   76 1    
    12    6    7 1    
    13    6   77 1    
    14    6   78 1    
    15    7    8 1    
    16    8    9 1    
    17    8   79 1    
    18    8   80 1    
    19    9   10 ar   
    20    9   14 ar   
    21   10   11 ar   
    22   10   81 1    
    23   11   12 ar   
    24   11   71 1    
    25   12   13 ar   
    26   12   82 1    
    27   13   14 ar   
    28   13   15 1    
    29   14   83 1    
    30   15   16 1    
    31   15   84 1    
    32   15   85 1    
    33   16   17 1    
    34   17   18 1    
    35   17   86 1    
    36   17   87 1    
    37   18   19 1    
    38   18   37 1    
    39   18   88 1    
    40   19   20 am   BACKBONE|DICT|INTERRES
    41   19   89 1    
    42   20   21 2    
    43   20   22 1    
    44   22   23 1    
    45   22   24 1    
    46   22   90 1    
    47   23   91 1    
    48   23   92 1    
    49   23   93 1    
    50   24   25 am   BACKBONE|DICT|INTERRES
    51   24   94 1    
    52   25   26 2    
    53   25   27 1    
    54   27   28 1    
    55   27   29 1    
    56   27   95 1    
    57   28   96 1    
    58   28   97 1    
    59   28   98 1    
    60   29   30 am   BACKBONE|DICT|INTERRES
    61   29   99 1    
    62   30   31 2    
    63   30   32 1    
    64   32   33 1    
    65   32   34 1    
    66   32  100 1    
    67   33  101 1    
    68   33  102 1    
    69   33  103 1    
    70   34   35 am   BACKBONE|DICT|INTERRES
    71   34  104 1    
    72   35   36 2    
    73   37   38 2    
    74   37   39 am   BACKBONE|DICT|INTERRES
    75   39   40 1    
    76   39  105 1    
    77   40   41 1    
    78   40   42 1    
    79   40  106 1    
    80   41  107 1    
    81   41  108 1    
    82   41  109 1    
    83   42   43 2    
    84   42   44 am   BACKBONE|DICT|INTERRES
    85   44   45 1    
    86   44  110 1    
    87   45   46 1    
    88   45   47 1    
    89   45  111 1    
    90   46  112 1    
    91   46  113 1    
    92   46  114 1    
    93   47   48 2    
    94   47   49 am   BACKBONE|DICT|INTERRES
    95   49   50 1    
    96   49  115 1    
    97   50   51 1    
    98   50   52 1    
    99   50  116 1    
   100   51  117 1    
   101   51  118 1    
   102   51  119 1    
   103   52   53 2    
   104   52   54 am   BACKBONE|DICT|INTERRES
   105   54   55 1    
   106   54  120 1    
   107   55   56 1    
   108   55   57 1    
   109   55  121 1    
   110   56  122 1    
   111   56  123 1    
   112   56  124 1    
   113   57   58 2    
   114   57   59 am   BACKBONE|DICT|INTERRES
   115   59   60 1    
   116   59  125 1    
   117   60   61 1    
   118   60   62 1    
   119   60  126 1    
   120   61  127 1    
   121   61  128 1    
   122   61  129 1    
   123   62   63 2    
   124   62   64 am   BACKBONE|DICT|INTERRES
   125   64   65 1    
   126   64  130 1    
   127   65   66 1    
   128   65   69 1    
   129   65  131 1    
   130   66   67 am   BACKBONE|DICT|INTERRES
   131   66   68 2    
   132   67  132 1    
   133   67  133 1    
   134   69   70 1    
   135   69  134 1    
   136   69  135 1    
   137   70   71 1    
   138   71  136 1    
   139   71  137 1    
@<TRIPOS>SUBSTRUCTURE
     1 UNK         1 GROUP             0       ****    0 ROOT    
