@<TRIPOS>MOLECULE
3R136
137   139    1
SMALL
USER_CHARGES


@<TRIPOS>ATOM
      1 CA         29.9711   28.2922   -1.4726 C.3       0 UNK        -0.1979 
      2 C          30.3801   26.8278   -1.4110 C.2       0 UNK         0.4864 
      3 O          31.0070   26.3363   -2.3501 O.2       0 UNK        -0.5359 
      4 N          30.0040   26.1215   -0.3345 N.am      1 UNK        -0.4318 
      5 CA         30.2541   24.7004   -0.0476 C.3       1 UNK         0.0824 
      6 C6         31.7650   24.3299   -0.0161 C.3       12 UNK        -0.0944 
      7 S7         32.1039   22.5905    0.4278 S.3       12 UNK        -0.2672 
      8 C8         32.6724   22.7308    2.1538 C.3       12 UNK         0.0333 
      9 C9         31.5846   23.1729    3.1285 C.ar      12 UNK        -0.0807 
     10 C10        31.8844   24.1188    4.1126 C.ar      12 UNK        -0.0894 
     11 C11        30.9211   24.5171    5.0460 C.ar      12 UNK        -0.0804 
     12 C12        29.6469   23.9422    4.9942 C.ar      12 UNK        -0.0824 
     13 C13        29.3321   22.9881    4.0205 C.ar      12 UNK        -0.0762 
     14 C14        30.3050   22.6083    3.0920 C.ar      12 UNK        -0.0782 
     15 C15        27.9586   22.3307    3.9908 C.3       12 UNK         0.0230 
     16 S16        26.7702   23.2606    2.9710 S.3       12 UNK        -0.2608 
     17 C17        26.3397   24.6408    4.0807 C.3       12 UNK        -0.0989 
     18 CA         26.9246   25.9845    3.5784 C.3       5 UNK         0.0716 
     19 N          26.2088   26.4741    2.3996 N.am      5 UNK        -0.4135 
     20 C          26.7701   27.1179    1.3730 C.2       4 UNK         0.5031 
     21 O          27.9863   27.2588    1.2278 O.2       4 UNK        -0.5229 
     22 CA         25.8054   27.7950    0.3866 C.3       4 UNK         0.0329 
     23 CB         25.8457   29.3208    0.5767 C.3       4 UNK        -0.2001 
     24 N          26.1180   27.4772   -1.0067 N.am      4 UNK        -0.4303 
     25 C          25.9112   26.2848   -1.5814 C.2       3 UNK         0.5044 
     26 O          25.4389   25.3165   -0.9849 O.2       3 UNK        -0.5152 
     27 CA         26.2701   26.1421   -3.0720 C.3       3 UNK         0.0319 
     28 CB         26.5417   27.4798   -3.7913 C.3       3 UNK        -0.2001 
     29 N          27.4490   25.2903   -3.1846 N.am      3 UNK        -0.4354 
     30 C          27.4448   23.9770   -3.4515 C.2       2 UNK         0.4964 
     31 O          26.4464   23.3387   -3.7866 O.2       2 UNK        -0.5047 
     32 CA         28.7941   23.2498   -3.3043 C.3       2 UNK         0.0288 
     33 CB         29.5539   23.2349   -4.6404 C.3       2 UNK        -0.2113 
     34 N          29.6351   23.8663   -2.2750 N.am      2 UNK        -0.4145 
     35 C          29.4051   23.7870   -0.9572 C.2       1 UNK         0.5006 
     36 O          28.5415   23.0638   -0.4594 O.2       1 UNK        -0.5103 
     37 C          26.8325   27.0914    4.6433 C.2       5 UNK         0.5055 
     38 O          26.0299   26.9874    5.5735 O.2       5 UNK        -0.5220 
     39 N          27.6007   28.1667    4.4472 N.am      6 UNK        -0.4450 
     40 CA         27.5788   29.3791    5.2587 C.3       6 UNK         0.0367 
     41 CB         26.3924   30.2666    4.8292 C.3       6 UNK        -0.1929 
     42 C          28.9084   30.1185    5.0858 C.2       6 UNK         0.5070 
     43 O          29.7075   29.7529    4.2202 O.2       6 UNK        -0.5237 
     44 N          29.0960   31.1866    5.8741 N.am      7 UNK        -0.4739 
     45 CA         30.2850   32.0515    5.8947 C.3       7 UNK         0.0276 
     46 CB         30.0865   33.1584    6.9421 C.3       7 UNK        -0.1927 
     47 C          30.6771   32.6644    4.5363 C.2       7 UNK         0.5013 
     48 O          31.8483   32.9901    4.3459 O.2       7 UNK        -0.5193 
     49 N          29.7234   32.7469    3.5968 N.am      8 UNK        -0.4253 
     50 CA         29.9365   33.0928    2.1871 C.3       8 UNK         0.0242 
     51 CB         28.5789   33.1076    1.4653 C.3       8 UNK        -0.2000 
     52 C          30.9205   32.1589    1.4515 C.2       8 UNK         0.4948 
     53 O          31.5583   32.5988    0.4947 O.2       8 UNK        -0.5275 
     54 N          31.0535   30.9081    1.9190 N.am      9 UNK        -0.4246 
     55 CA         32.0395   29.9373    1.4388 C.3       9 UNK         0.0261 
     56 CB         31.5311   28.5220    1.7630 C.3       9 UNK        -0.1959 
     57 C          33.4435   30.1439    2.0413 C.2       9 UNK         0.5033 
     58 O          34.3685   29.4449    1.6263 O.2       9 UNK        -0.5390 
     59 N          33.5784   31.0518    3.0239 N.am      10 UNK        -0.4215 
     60 CA         34.7744   31.3317    3.8319 C.3       10 UNK         0.0240 
     61 CB         35.9194   31.8907    2.9600 C.3       10 UNK        -0.1982 
     62 C          35.2172   30.1444    4.7132 C.2       10 UNK         0.4970 
     63 O          36.3820   30.0822    5.1102 O.2       10 UNK        -0.4916 
     64 N          34.2844   29.2306    5.0111 N.am      11 UNK        -0.4279 
     65 CA         34.5115   28.0099    5.7962 C.3       11 UNK         0.1003 
     66 C          34.4526   28.1982    7.3406 C.2       11 UNK         0.5709 
     67 N          34.1426   29.3823    7.8562 N.am      11 UNK        -0.7358 
     68 O          34.7124   27.2559    8.0853 O.2       11 UNK        -0.4999 
     69 C69        33.6148   26.8520    5.2866 C.3       12 UNK        -0.0954 
     70 S70        31.8190   27.1335    5.4962 S.3       12 UNK        -0.2268 
     71 C71        31.2593   25.5233    6.1444 C.3       12 UNK         0.0203 
     72 H72        29.5331   28.5215   -2.4428 H         1 UNK         0.0888 
     73 H73        29.2452   28.5517   -0.7029 H         1 UNK         0.0888 
     74 H74        30.8464   28.9271   -1.3448 H         1 UNK         0.0888 
     75 H75        29.3981   26.5797    0.3478 H         1 UNK         0.3017 
     76 H76        29.8718   24.5541    0.9643 H         1 UNK         0.0873 
     77 H77        32.2283   24.5072   -0.9872 H         1 UNK         0.0745 
     78 H78        32.2865   24.9854    0.6830 H         1 UNK         0.0745 
     79 H79        33.5247   23.4116    2.1855 H         1 UNK         0.0705 
     80 H80        33.0457   21.7577    2.4750 H         1 UNK         0.0705 
     81 H81        32.8798   24.5326    4.1579 H         1 UNK         0.1334 
     82 H82        28.9044   24.2241    5.7271 H         1 UNK         0.1417 
     83 H83        30.0673   21.8637    2.3442 H         1 UNK         0.1562 
     84 H84        27.5699   22.2099    5.0031 H         1 UNK         0.0748 
     85 H85        28.0436   21.3215    3.5846 H         1 UNK         0.0748 
     86 H86        26.6889   24.4131    5.0886 H         1 UNK         0.0940 
     87 H87        25.2521   24.6962    4.1580 H         1 UNK         0.0940 
     88 H88        27.9827   25.8349    3.3493 H         1 UNK         0.0703 
     89 H89        25.2016   26.4245    2.4488 H         1 UNK         0.3081 
     90 H90        24.7878   27.4537    0.5897 H         1 UNK         0.0719 
     91 H91        26.8384   29.7278    0.3786 H         1 UNK         0.0809 
     92 H92        25.1380   29.8235   -0.0829 H         1 UNK         0.0809 
     93 H93        25.5816   29.5931    1.5994 H         1 UNK         0.0809 
     94 H94        26.5173   28.2192   -1.5614 H         1 UNK         0.2990 
     95 H95        25.4157   25.6704   -3.5622 H         1 UNK         0.0690 
     96 H96        26.7197   27.3166   -4.8545 H         1 UNK         0.0788 
     97 H97        27.4124   28.0000   -3.3933 H         1 UNK         0.0788 
     98 H98        25.6845   28.1504   -3.7146 H         1 UNK         0.0788 
     99 H99        28.3276   25.7048   -2.9129 H         1 UNK         0.2993 
    100 H100       28.5868   22.2182   -3.0110 H         1 UNK         0.0949 
    101 H101       30.4828   22.6698   -4.5608 H         1 UNK         0.0767 
    102 H102       28.9560   22.7665   -5.4235 H         1 UNK         0.0767 
    103 H103       29.8017   24.2428   -4.9764 H         1 UNK         0.0767 
    104 H104       30.3410   24.5314   -2.5805 H         1 UNK         0.3013 
    105 H105       28.2808   28.1801    3.6944 H         1 UNK         0.3121 
    106 H106       27.4787   29.1074    6.3117 H         1 UNK         0.0774 
    107 H107       26.3260   31.1684    5.4385 H         1 UNK         0.0815 
    108 H108       26.4824   30.5804    3.7885 H         1 UNK         0.0815 
    109 H109       25.4427   29.7425    4.9369 H         1 UNK         0.0815 
    110 H110       28.3741   31.4153    6.5430 H         1 UNK         0.2987 
    111 H111       31.1254   31.4294    6.2103 H         1 UNK         0.0949 
    112 H112       29.2323   33.7928    6.7020 H         1 UNK         0.0806 
    113 H113       29.9280   32.7416    7.9369 H         1 UNK         0.0806 
    114 H114       30.9647   33.8033    7.0014 H         1 UNK         0.0806 
    115 H115       28.7932   32.4521    3.8540 H         1 UNK         0.3010 
    116 H116       30.3581   34.0996    2.1560 H         1 UNK         0.0829 
    117 H117       27.8964   33.8288    1.9152 H         1 UNK         0.0813 
    118 H118       28.6972   33.3875    0.4174 H         1 UNK         0.0813 
    119 H119       28.0984   32.1283    1.4882 H         1 UNK         0.0813 
    120 H120       30.4898   30.6115    2.7137 H         1 UNK         0.3038 
    121 H121       32.1298   30.0339    0.3555 H         1 UNK         0.0769 
    122 H122       32.1467   27.7618    1.2806 H         1 UNK         0.0811 
    123 H123       30.5054   28.3789    1.4277 H         1 UNK         0.0811 
    124 H124       31.5518   28.3238    2.8339 H         1 UNK         0.0811 
    125 H125       32.7655   31.6039    3.2825 H         1 UNK         0.3204 
    126 H126       34.4837   32.1202    4.5273 H         1 UNK         0.0748 
    127 H127       36.7423   32.2518    3.5781 H         1 UNK         0.0771 
    128 H128       36.3268   31.1336    2.2895 H         1 UNK         0.0771 
    129 H129       35.5809   32.7302    2.3527 H         1 UNK         0.0771 
    130 H130       33.3450   29.3583    4.6663 H         1 UNK         0.2980 
    131 H131       35.5384   27.6943    5.6022 H         1 UNK         0.0545 
    132 H132       34.1157   29.4919    8.8575 H         1 UNK         0.3459 
    133 H133       33.9395   30.1638    7.2556 H         1 UNK         0.3459 
    134 H134       33.8027   26.6943    4.2234 H         1 UNK         0.0616 
    135 H135       33.9056   25.9223    5.7779 H         1 UNK         0.0616 
    136 H136       32.0122   25.1011    6.8108 H         1 UNK         0.0634 
    137 H137       30.3819   25.7093    6.7655 H         1 UNK         0.0634 
@<TRIPOS>BOND
     1    1    2 1    
     2    1   72 1    
     3    1   73 1    
     4    1   74 1    
     5    2    3 2    
     6    2    4 am   BACKBONE|DICT|INTERRES
     7    4    5 1    
     8    4   75 1    
     9    5    6 1    
    10    5   35 1    
    11    5   76 1    
    12    6    7 1    
    13    6   77 1    
    14    6   78 1    
    15    7    8 1    
    16    8    9 1    
    17    8   79 1    
    18    8   80 1    
    19    9   10 ar   
    20    9   14 ar   
    21   10   11 ar   
    22   10   81 1    
    23   11   12 ar   
    24   11   71 1    
    25   12   13 ar   
    26   12   82 1    
    27   13   14 ar   
    28   13   15 1    
    29   14   83 1    
    30   15   16 1    
    31   15   84 1    
    32   15   85 1    
    33   16   17 1    
    34   17   18 1    
    35   17   86 1    
    36   17   87 1    
    37   18   19 1    
    38   18   37 1    
    39   18   88 1    
    40   19   20 am   BACKBONE|DICT|INTERRES
    41   19   89 1    
    42   20   21 2    
    43   20   22 1    
    44   22   23 1    
    45   22   24 1    
    46   22   90 1    
    47   23   91 1    
    48   23   92 1    
    49   23   93 1    
    50   24   25 am   BACKBONE|DICT|INTERRES
    51   24   94 1    
    52   25   26 2    
    53   25   27 1    
    54   27   28 1    
    55   27   29 1    
    56   27   95 1    
    57   28   96 1    
    58   28   97 1    
    59   28   98 1    
    60   29   30 am   BACKBONE|DICT|INTERRES
    61   29   99 1    
    62   30   31 2    
    63   30   32 1    
    64   32   33 1    
    65   32   34 1    
    66   32  100 1    
    67   33  101 1    
    68   33  102 1    
    69   33  103 1    
    70   34   35 am   BACKBONE|DICT|INTERRES
    71   34  104 1    
    72   35   36 2    
    73   37   38 2    
    74   37   39 am   BACKBONE|DICT|INTERRES
    75   39   40 1    
    76   39  105 1    
    77   40   41 1    
    78   40   42 1    
    79   40  106 1    
    80   41  107 1    
    81   41  108 1    
    82   41  109 1    
    83   42   43 2    
    84   42   44 am   BACKBONE|DICT|INTERRES
    85   44   45 1    
    86   44  110 1    
    87   45   46 1    
    88   45   47 1    
    89   45  111 1    
    90   46  112 1    
    91   46  113 1    
    92   46  114 1    
    93   47   48 2    
    94   47   49 am   BACKBONE|DICT|INTERRES
    95   49   50 1    
    96   49  115 1    
    97   50   51 1    
    98   50   52 1    
    99   50  116 1    
   100   51  117 1    
   101   51  118 1    
   102   51  119 1    
   103   52   53 2    
   104   52   54 am   BACKBONE|DICT|INTERRES
   105   54   55 1    
   106   54  120 1    
   107   55   56 1    
   108   55   57 1    
   109   55  121 1    
   110   56  122 1    
   111   56  123 1    
   112   56  124 1    
   113   57   58 2    
   114   57   59 am   BACKBONE|DICT|INTERRES
   115   59   60 1    
   116   59  125 1    
   117   60   61 1    
   118   60   62 1    
   119   60  126 1    
   120   61  127 1    
   121   61  128 1    
   122   61  129 1    
   123   62   63 2    
   124   62   64 am   BACKBONE|DICT|INTERRES
   125   64   65 1    
   126   64  130 1    
   127   65   66 1    
   128   65   69 1    
   129   65  131 1    
   130   66   67 am   BACKBONE|DICT|INTERRES
   131   66   68 2    
   132   67  132 1    
   133   67  133 1    
   134   69   70 1    
   135   69  134 1    
   136   69  135 1    
   137   70   71 1    
   138   71  136 1    
   139   71  137 1    
@<TRIPOS>SUBSTRUCTURE
     1 UNK         1 GROUP             0       ****    0 ROOT    
