@<TRIPOS>MOLECULE
3R136
137   139    1
SMALL
USER_CHARGES


@<TRIPOS>ATOM
      1 CA         30.4463   25.7981    3.6283 C.3       0 UNK        -0.1979 
      2 C          29.4631   24.6462    3.7588 C.2       0 UNK         0.4864 
      3 O          28.6834   24.6125    4.7111 O.2       0 UNK        -0.5359 
      4 N          29.4891   23.7088    2.8011 N.am      1 UNK        -0.4318 
      5 CA         28.5960   22.5431    2.7374 C.3       1 UNK         0.0824 
      6 C6         29.0239   21.5448    1.6340 C.3       12 UNK        -0.0944 
      7 S7         30.5964   20.7076    2.0139 S.3       12 UNK        -0.2672 
      8 C8         31.7096   21.3614    0.7298 C.3       12 UNK         0.0333 
      9 C9         32.3275   22.6919    1.1337 C.ar      12 UNK        -0.0807 
     10 C10        33.2487   22.7309    2.1836 C.ar      12 UNK        -0.0894 
     11 C11        33.8643   23.9304    2.5422 C.ar      12 UNK        -0.0804 
     12 C12        33.5541   25.0978    1.8399 C.ar      12 UNK        -0.0824 
     13 C13        32.6368   25.0813    0.7834 C.ar      12 UNK        -0.0762 
     14 C14        32.0189   23.8682    0.4411 C.ar      12 UNK        -0.0782 
     15 C15        32.3671   26.3992    0.0516 C.3       12 UNK         0.0230 
     16 S16        31.5625   26.2526   -1.5819 S.3       12 UNK        -0.2608 
     17 C17        29.7879   26.2833   -1.1499 C.3       12 UNK        -0.0989 
     18 CA         29.0528   27.4857   -1.8046 C.3       5 UNK         0.0716 
     19 N          27.6456   27.1689   -2.0427 N.am      5 UNK        -0.4135 
     20 C          26.9589   27.4455   -3.1601 C.2       4 UNK         0.5031 
     21 O          27.4700   27.8938   -4.1877 O.2       4 UNK        -0.5229 
     22 CA         25.4393   27.1791   -3.1405 C.3       4 UNK         0.0329 
     23 CB         25.1215   25.8328   -3.8115 C.3       4 UNK        -0.2001 
     24 N          24.8771   27.1831   -1.7885 N.am      4 UNK        -0.4303 
     25 C          24.7387   28.2720   -1.0182 C.2       3 UNK         0.5044 
     26 O          24.8860   29.4214   -1.4343 O.2       3 UNK        -0.5152 
     27 CA         24.3915   28.0495    0.4691 C.3       3 UNK         0.0319 
     28 CB         22.9696   28.5491    0.7745 C.3       3 UNK        -0.2001 
     29 N          24.5186   26.6615    0.9367 N.am      3 UNK        -0.4354 
     30 C          25.6542   25.9517    0.9874 C.2       2 UNK         0.4964 
     31 O          26.7527   26.3748    0.6168 O.2       2 UNK        -0.5047 
     32 CA         25.5221   24.5021    1.4601 C.3       2 UNK         0.0288 
     33 CB         24.8833   23.6295    0.3601 C.3       2 UNK        -0.2113 
     34 N          26.8506   23.9972    1.7894 N.am      2 UNK        -0.4145 
     35 C          27.1123   22.9224    2.5422 C.2       1 UNK         0.5006 
     36 O          26.2392   22.2262    3.0643 O.2       1 UNK        -0.5103 
     37 C          29.1429   28.7728   -0.9561 C.2       5 UNK         0.5055 
     38 O          28.1186   29.3480   -0.5776 O.2       5 UNK        -0.5220 
     39 N          30.3734   29.2067   -0.6558 N.am      6 UNK        -0.4450 
     40 CA         30.7082   30.3923    0.1427 C.3       6 UNK         0.0367 
     41 CB         32.1850   30.7527   -0.1062 C.3       6 UNK        -0.1929 
     42 C          30.3906   30.2384    1.6475 C.2       6 UNK         0.5070 
     43 O          31.2580   30.4671    2.4904 O.2       6 UNK        -0.5237 
     44 N          29.1426   29.8770    1.9706 N.am      7 UNK        -0.4739 
     45 CA         28.6277   29.6607    3.3281 C.3       7 UNK         0.0276 
     46 CB         27.2118   29.0715    3.2415 C.3       7 UNK        -0.1927 
     47 C          28.6450   30.9118    4.2266 C.2       7 UNK         0.5013 
     48 O          28.6234   30.7727    5.4494 O.2       7 UNK        -0.5193 
     49 N          28.7302   32.1036    3.6179 N.am      8 UNK        -0.4253 
     50 CA         28.9365   33.3877    4.2957 C.3       8 UNK         0.0242 
     51 CB         28.7998   34.5248    3.2701 C.3       8 UNK        -0.2000 
     52 C          30.2864   33.4900    5.0354 C.2       8 UNK         0.4948 
     53 O          30.3954   34.2829    5.9715 O.2       8 UNK        -0.5275 
     54 N          31.2756   32.6865    4.6233 N.am      9 UNK        -0.4246 
     55 CA         32.5748   32.5373    5.2734 C.3       9 UNK         0.0261 
     56 CB         33.6112   33.4372    4.5727 C.3       9 UNK        -0.1959 
     57 C          32.9484   31.0481    5.2545 C.2       9 UNK         0.5033 
     58 O          34.0229   30.6935    4.7647 O.2       9 UNK        -0.5390 
     59 N          32.0174   30.2112    5.7440 N.am      10 UNK        -0.4215 
     60 CA         32.0150   28.7449    5.6919 C.3       10 UNK         0.0240 
     61 CB         30.8652   28.2069    6.5632 C.3       10 UNK        -0.1982 
     62 C          33.3511   28.0983    6.0943 C.2       10 UNK         0.4970 
     63 O          33.6563   28.0119    7.2856 O.2       10 UNK        -0.4916 
     64 N          34.1099   27.6750    5.0769 N.am      11 UNK        -0.4279 
     65 CA         35.4312   27.0359    5.1789 C.3       11 UNK         0.1003 
     66 C          36.5604   27.9636    5.7234 C.2       11 UNK         0.5709 
     67 N          36.4000   29.2820    5.7024 N.am      11 UNK        -0.7358 
     68 O          37.6142   27.4876    6.1403 O.2       11 UNK        -0.4999 
     69 C69        35.3912   25.6435    5.8792 C.3       12 UNK        -0.0954 
     70 S70        34.0995   24.5358    5.2165 S.3       12 UNK        -0.2268 
     71 C71        34.8766   23.9646    3.6758 C.3       12 UNK         0.0203 
     72 H72        30.0613   26.6794    4.1380 H         1 UNK         0.0888 
     73 H73        31.4038   25.5324    4.0752 H         1 UNK         0.0888 
     74 H74        30.6071   26.0618    2.5847 H         1 UNK         0.0888 
     75 H75        30.2011   23.7525    2.0855 H         1 UNK         0.3017 
     76 H76        28.6600   22.0343    3.7019 H         1 UNK         0.0873 
     77 H77        29.0818   22.0418    0.6638 H         1 UNK         0.0745 
     78 H78        28.2778   20.7551    1.5199 H         1 UNK         0.0745 
     79 H79        31.1826   21.4375   -0.2225 H         1 UNK         0.0705 
     80 H80        32.5120   20.6396    0.5702 H         1 UNK         0.0705 
     81 H81        33.4894   21.8218    2.7181 H         1 UNK         0.1334 
     82 H82        34.0377   26.0248    2.1161 H         1 UNK         0.1417 
     83 H83        31.3140   23.8237   -0.3769 H         1 UNK         0.1562 
     84 H84        33.3210   26.9040   -0.1100 H         1 UNK         0.0748 
     85 H85        31.7850   27.0583    0.6964 H         1 UNK         0.0748 
     86 H86        29.6394   26.2561   -0.0682 H         1 UNK         0.0940 
     87 H87        29.3691   25.3465   -1.5221 H         1 UNK         0.0940 
     88 H88        29.5278   27.7053   -2.7632 H         1 UNK         0.0703 
     89 H89        27.1348   26.8843   -1.2123 H         1 UNK         0.3081 
     90 H90        24.9573   27.9728   -3.7154 H         1 UNK         0.0719 
     91 H91        25.5029   25.8073   -4.8333 H         1 UNK         0.0809 
     92 H92        25.5718   24.9964   -3.2750 H         1 UNK         0.0809 
     93 H93        24.0465   25.6593   -3.8649 H         1 UNK         0.0809 
     94 H94        24.6983   26.2836   -1.3681 H         1 UNK         0.2990 
     95 H95        25.0956   28.6533    1.0444 H         1 UNK         0.0690 
     96 H96        22.7483   28.4917    1.8405 H         1 UNK         0.0788 
     97 H97        22.2152   27.9694    0.2411 H         1 UNK         0.0788 
     98 H98        22.8484   29.5922    0.4782 H         1 UNK         0.0788 
     99 H99        23.6627   26.2188    1.2409 H         1 UNK         0.2993 
    100 H100       24.9016   24.4865    2.3589 H         1 UNK         0.0949 
    101 H101       25.4874   23.6218   -0.5483 H         1 UNK         0.0767 
    102 H102       24.7657   22.5966    0.6883 H         1 UNK         0.0767 
    103 H103       23.8899   23.9907    0.0913 H         1 UNK         0.0767 
    104 H104       27.6101   24.5634    1.4330 H         1 UNK         0.3013 
    105 H105       31.1542   28.6630   -0.9971 H         1 UNK         0.3121 
    106 H106       30.1006   31.2239   -0.2203 H         1 UNK         0.0774 
    107 H107       32.4598   31.6672    0.4216 H         1 UNK         0.0815 
    108 H108       32.8559   29.9648    0.2385 H         1 UNK         0.0815 
    109 H109       32.3809   30.9235   -1.1649 H         1 UNK         0.0815 
    110 H110       28.5024   29.7033    1.1974 H         1 UNK         0.2987 
    111 H111       29.2755   28.9243    3.8052 H         1 UNK         0.0949 
    112 H112       27.2079   28.1335    2.6867 H         1 UNK         0.0806 
    113 H113       26.8132   28.8601    4.2348 H         1 UNK         0.0806 
    114 H114       26.5208   29.7575    2.7504 H         1 UNK         0.0806 
    115 H115       28.7291   32.1145    2.6085 H         1 UNK         0.3010 
    116 H116       28.1477   33.4995    5.0428 H         1 UNK         0.0829 
    117 H117       29.5545   34.4545    2.4856 H         1 UNK         0.0813 
    118 H118       28.9182   35.4980    3.7490 H         1 UNK         0.0813 
    119 H119       27.8182   34.5174    2.7959 H         1 UNK         0.0813 
    120 H120       31.1043   32.0419    3.8562 H         1 UNK         0.3038 
    121 H121       32.5091   32.8332    6.3226 H         1 UNK         0.0769 
    122 H122       33.3223   34.4870    4.6230 H         1 UNK         0.0811 
    123 H123       33.7273   33.1708    3.5214 H         1 UNK         0.0811 
    124 H124       34.5903   33.3468    5.0447 H         1 UNK         0.0811 
    125 H125       31.1757   30.6299    6.1151 H         1 UNK         0.3204 
    126 H126       31.8011   28.4712    4.6569 H         1 UNK         0.0748 
    127 H127       30.9567   28.5366    7.5990 H         1 UNK         0.0771 
    128 H128       29.8931   28.5318    6.1948 H         1 UNK         0.0771 
    129 H129       30.8563   27.1158    6.5701 H         1 UNK         0.0771 
    130 H130       33.7960   27.8672    4.1378 H         1 UNK         0.2980 
    131 H131       35.7262   26.8585    4.1451 H         1 UNK         0.0545 
    132 H132       37.1396   29.8738    6.0443 H         1 UNK         0.3459 
    133 H133       35.5423   29.6975    5.3467 H         1 UNK         0.3459 
    134 H134       35.2118   25.7639    6.9486 H         1 UNK         0.0616 
    135 H135       36.3544   25.1382    5.7903 H         1 UNK         0.0616 
    136 H136       35.3073   22.9759    3.8411 H         1 UNK         0.0634 
    137 H137       35.7071   24.6141    3.3978 H         1 UNK         0.0634 
@<TRIPOS>BOND
     1    1    2 1    
     2    1   72 1    
     3    1   73 1    
     4    1   74 1    
     5    2    3 2    
     6    2    4 am   BACKBONE|DICT|INTERRES
     7    4    5 1    
     8    4   75 1    
     9    5    6 1    
    10    5   35 1    
    11    5   76 1    
    12    6    7 1    
    13    6   77 1    
    14    6   78 1    
    15    7    8 1    
    16    8    9 1    
    17    8   79 1    
    18    8   80 1    
    19    9   10 ar   
    20    9   14 ar   
    21   10   11 ar   
    22   10   81 1    
    23   11   12 ar   
    24   11   71 1    
    25   12   13 ar   
    26   12   82 1    
    27   13   14 ar   
    28   13   15 1    
    29   14   83 1    
    30   15   16 1    
    31   15   84 1    
    32   15   85 1    
    33   16   17 1    
    34   17   18 1    
    35   17   86 1    
    36   17   87 1    
    37   18   19 1    
    38   18   37 1    
    39   18   88 1    
    40   19   20 am   BACKBONE|DICT|INTERRES
    41   19   89 1    
    42   20   21 2    
    43   20   22 1    
    44   22   23 1    
    45   22   24 1    
    46   22   90 1    
    47   23   91 1    
    48   23   92 1    
    49   23   93 1    
    50   24   25 am   BACKBONE|DICT|INTERRES
    51   24   94 1    
    52   25   26 2    
    53   25   27 1    
    54   27   28 1    
    55   27   29 1    
    56   27   95 1    
    57   28   96 1    
    58   28   97 1    
    59   28   98 1    
    60   29   30 am   BACKBONE|DICT|INTERRES
    61   29   99 1    
    62   30   31 2    
    63   30   32 1    
    64   32   33 1    
    65   32   34 1    
    66   32  100 1    
    67   33  101 1    
    68   33  102 1    
    69   33  103 1    
    70   34   35 am   BACKBONE|DICT|INTERRES
    71   34  104 1    
    72   35   36 2    
    73   37   38 2    
    74   37   39 am   BACKBONE|DICT|INTERRES
    75   39   40 1    
    76   39  105 1    
    77   40   41 1    
    78   40   42 1    
    79   40  106 1    
    80   41  107 1    
    81   41  108 1    
    82   41  109 1    
    83   42   43 2    
    84   42   44 am   BACKBONE|DICT|INTERRES
    85   44   45 1    
    86   44  110 1    
    87   45   46 1    
    88   45   47 1    
    89   45  111 1    
    90   46  112 1    
    91   46  113 1    
    92   46  114 1    
    93   47   48 2    
    94   47   49 am   BACKBONE|DICT|INTERRES
    95   49   50 1    
    96   49  115 1    
    97   50   51 1    
    98   50   52 1    
    99   50  116 1    
   100   51  117 1    
   101   51  118 1    
   102   51  119 1    
   103   52   53 2    
   104   52   54 am   BACKBONE|DICT|INTERRES
   105   54   55 1    
   106   54  120 1    
   107   55   56 1    
   108   55   57 1    
   109   55  121 1    
   110   56  122 1    
   111   56  123 1    
   112   56  124 1    
   113   57   58 2    
   114   57   59 am   BACKBONE|DICT|INTERRES
   115   59   60 1    
   116   59  125 1    
   117   60   61 1    
   118   60   62 1    
   119   60  126 1    
   120   61  127 1    
   121   61  128 1    
   122   61  129 1    
   123   62   63 2    
   124   62   64 am   BACKBONE|DICT|INTERRES
   125   64   65 1    
   126   64  130 1    
   127   65   66 1    
   128   65   69 1    
   129   65  131 1    
   130   66   67 am   BACKBONE|DICT|INTERRES
   131   66   68 2    
   132   67  132 1    
   133   67  133 1    
   134   69   70 1    
   135   69  134 1    
   136   69  135 1    
   137   70   71 1    
   138   71  136 1    
   139   71  137 1    
@<TRIPOS>SUBSTRUCTURE
     1 UNK         1 GROUP             0       ****    0 ROOT    
