@<TRIPOS>MOLECULE
3R136
137   139    1
SMALL
USER_CHARGES


@<TRIPOS>ATOM
      1 CA         29.7352   19.4879    0.3359 C.3       0 UNK        -0.1979 
      2 C          29.6115   20.7574   -0.4944 C.2       0 UNK         0.4864 
      3 O          28.7239   21.5659   -0.2227 O.2       0 UNK        -0.5359 
      4 N          30.5033   20.9212   -1.4853 N.am      1 UNK        -0.4318 
      5 CA         30.6242   22.0404   -2.4348 C.3       1 UNK         0.0824 
      6 C6         31.5131   23.2180   -1.9250 C.3       12 UNK        -0.0944 
      7 S7         30.9293   24.0892   -0.4275 S.3       12 UNK        -0.2672 
      8 C8         32.0042   23.3043    0.8153 C.3       12 UNK         0.0333 
      9 C9         31.6243   23.6741    2.2410 C.ar      12 UNK        -0.0807 
     10 C10        32.4699   24.4792    3.0101 C.ar      12 UNK        -0.0894 
     11 C11        32.1613   24.7620    4.3442 C.ar      12 UNK        -0.0804 
     12 C12        31.0008   24.2284    4.9101 C.ar      12 UNK        -0.0824 
     13 C13        30.1390   23.4353    4.1473 C.ar      12 UNK        -0.0762 
     14 C14        30.4550   23.1624    2.8124 C.ar      12 UNK        -0.0782 
     15 C15        28.8816   22.8496    4.7709 C.3       12 UNK         0.0230 
     16 S16        27.4274   23.9052    4.4859 S.3       12 UNK        -0.2608 
     17 C17        27.7238   25.2986    5.6318 C.3       12 UNK        -0.0989 
     18 CA         28.0745   26.6274    4.9068 C.3       5 UNK         0.0716 
     19 N          27.0492   26.9630    3.9085 N.am      5 UNK        -0.4135 
     20 C          27.1479   27.8287    2.8931 C.2       4 UNK         0.5031 
     21 O          28.1043   28.5887    2.7091 O.2       4 UNK        -0.5229 
     22 CA         25.9521   27.8770    1.9301 C.3       4 UNK         0.0329 
     23 CB         25.0669   29.0989    2.2256 C.3       4 UNK        -0.2001 
     24 N          26.4101   27.9201    0.5408 N.am      4 UNK        -0.4303 
     25 C          27.0080   26.8956   -0.0807 C.2       3 UNK         0.5044 
     26 O          27.1387   25.7710    0.4102 O.2       3 UNK        -0.5152 
     27 CA         27.5599   27.1794   -1.4813 C.3       3 UNK         0.0319 
     28 CB         28.9070   27.9196   -1.4052 C.3       3 UNK        -0.2001 
     29 N          27.7438   25.9106   -2.1771 N.am      3 UNK        -0.4354 
     30 C          27.6518   25.7273   -3.4981 C.2       2 UNK         0.4964 
     31 O          27.4140   26.6343   -4.2978 O.2       2 UNK        -0.5047 
     32 CA         27.8974   24.2974   -4.0031 C.3       2 UNK         0.0288 
     33 CB         28.0658   24.2134   -5.5352 C.3       2 UNK        -0.2113 
     34 N          29.0708   23.7358   -3.3343 N.am      2 UNK        -0.4145 
     35 C          29.2919   22.4343   -3.1190 C.2       1 UNK         0.5006 
     36 O          28.5175   21.5463   -3.4875 O.2       1 UNK        -0.5103 
     37 C          28.3311   27.7793    5.9106 C.2       5 UNK         0.5055 
     38 O          28.2559   27.5754    7.1243 O.2       5 UNK        -0.5220 
     39 N          28.5975   28.9759    5.3855 N.am      6 UNK        -0.4450 
     40 CA         28.8327   30.2203    6.1021 C.3       6 UNK         0.0367 
     41 CB         27.4934   30.8192    6.5878 C.3       6 UNK        -0.1929 
     42 C          29.6462   31.1405    5.1796 C.2       6 UNK         0.5070 
     43 O          30.6253   30.6847    4.5865 O.2       6 UNK        -0.5237 
     44 N          29.2387   32.4104    5.0537 N.am      7 UNK        -0.4739 
     45 CA         29.9354   33.4536    4.2930 C.3       7 UNK         0.0276 
     46 CB         29.2285   34.7997    4.5180 C.3       7 UNK        -0.1927 
     47 C          30.0831   33.1717    2.7866 C.2       7 UNK         0.5013 
     48 O          31.0551   33.6365    2.1920 O.2       7 UNK        -0.5193 
     49 N          29.1446   32.4131    2.2004 N.am      8 UNK        -0.4253 
     50 CA         29.1753   32.0079    0.7910 C.3       8 UNK         0.0242 
     51 CB         27.8111   31.4342    0.3796 C.3       8 UNK        -0.2000 
     52 C          30.3085   31.0106    0.4966 C.2       8 UNK         0.4948 
     53 O          31.0557   31.2091   -0.4614 O.2       8 UNK        -0.5275 
     54 N          30.4367   29.9798    1.3447 N.am      9 UNK        -0.4246 
     55 CA         31.5419   29.0157    1.3220 C.3       9 UNK         0.0261 
     56 CB         31.1091   27.7429    2.0648 C.3       9 UNK        -0.1959 
     57 C          32.8541   29.5732    1.9134 C.2       9 UNK         0.5033 
     58 O          33.8985   28.9420    1.7454 O.2       9 UNK        -0.5390 
     59 N          32.7743   30.7347    2.5794 N.am      10 UNK        -0.4215 
     60 CA         33.8350   31.4670    3.2767 C.3       10 UNK         0.0240 
     61 CB         34.9665   31.8852    2.3128 C.3       10 UNK        -0.1982 
     62 C          34.3296   30.7115    4.5222 C.2       10 UNK         0.4970 
     63 O          35.5366   30.5428    4.7088 O.2       10 UNK        -0.4916 
     64 N          33.3783   30.2814    5.3559 N.am      11 UNK        -0.4279 
     65 CA         33.6081   29.5580    6.6110 C.3       11 UNK         0.1003 
     66 C          32.5727   29.9531    7.7019 C.2       11 UNK         0.5709 
     67 N          32.4351   29.1729    8.7657 N.am      11 UNK        -0.7358 
     68 O          31.9224   30.9938    7.6241 O.2       11 UNK        -0.4999 
     69 C69        33.7850   28.0309    6.3782 C.3       12 UNK        -0.0954 
     70 S70        32.3595   27.2357    5.5655 S.3       12 UNK        -0.2268 
     71 C71        33.0948   25.6184    5.1844 C.3       12 UNK         0.0203 
     72 H72        30.5597   18.8580    0.0021 H         1 UNK         0.0888 
     73 H73        29.9047   19.7405    1.3823 H         1 UNK         0.0888 
     74 H74        28.8162   18.9061    0.2700 H         1 UNK         0.0888 
     75 H75        31.1702   20.1786   -1.6416 H         1 UNK         0.3017 
     76 H76        31.1881   21.6054   -3.2616 H         1 UNK         0.0873 
     77 H77        32.5157   22.8346   -1.7293 H         1 UNK         0.0745 
     78 H78        31.6634   23.9577   -2.7132 H         1 UNK         0.0745 
     79 H79        31.9527   22.2203    0.7099 H         1 UNK         0.0705 
     80 H80        33.0396   23.5812    0.6103 H         1 UNK         0.0705 
     81 H81        33.3762   24.8766    2.5736 H         1 UNK         0.1334 
     82 H82        30.7714   24.4367    5.9459 H         1 UNK         0.1417 
     83 H83        29.7955   22.5446    2.2170 H         1 UNK         0.1562 
     84 H84        29.0190   22.6888    5.8414 H         1 UNK         0.0748 
     85 H85        28.6864   21.8654    4.3423 H         1 UNK         0.0748 
     86 H86        26.8220   25.4246    6.2343 H         1 UNK         0.0940 
     87 H87        28.5104   25.0271    6.3372 H         1 UNK         0.0940 
     88 H88        29.0132   26.4736    4.3693 H         1 UNK         0.0703 
     89 H89        26.2119   26.4026    3.9674 H         1 UNK         0.3081 
     90 H90        25.3490   26.9753    2.0597 H         1 UNK         0.0719 
     91 H91        24.6691   29.0530    3.2403 H         1 UNK         0.0809 
     92 H92        25.6173   30.0358    2.1387 H         1 UNK         0.0809 
     93 H93        24.2145   29.1457    1.5477 H         1 UNK         0.0809 
     94 H94        26.3547   28.8119    0.0725 H         1 UNK         0.2990 
     95 H95        26.8317   27.7923   -2.0172 H         1 UNK         0.0690 
     96 H96        29.2927   28.1489   -2.3985 H         1 UNK         0.0788 
     97 H97        29.6603   27.3295   -0.8814 H         1 UNK         0.0788 
     98 H98        28.8050   28.8640   -0.8731 H         1 UNK         0.0788 
     99 H99        27.8789   25.1169   -1.5608 H         1 UNK         0.2993 
    100 H100       27.0157   23.7176   -3.7208 H         1 UNK         0.0949 
    101 H101       28.1919   23.1827   -5.8669 H         1 UNK         0.0767 
    102 H102       27.1888   24.6096   -6.0489 H         1 UNK         0.0767 
    103 H103       28.9315   24.7831   -5.8748 H         1 UNK         0.0767 
    104 H104       29.7376   24.4059   -2.9741 H         1 UNK         0.3013 
    105 H105       28.6481   29.0346    4.3691 H         1 UNK         0.3121 
    106 H106       29.4585   30.0087    6.9708 H         1 UNK         0.0774 
    107 H107       26.8311   31.0622    5.7558 H         1 UNK         0.0815 
    108 H108       26.9624   30.1209    7.2349 H         1 UNK         0.0815 
    109 H109       27.6511   31.7258    7.1733 H         1 UNK         0.0815 
    110 H110       28.4186   32.6996    5.5673 H         1 UNK         0.2987 
    111 H111       30.9458   33.5284    4.7012 H         1 UNK         0.0949 
    112 H112       29.2166   35.0714    5.5738 H         1 UNK         0.0806 
    113 H113       29.7398   35.6035    3.9860 H         1 UNK         0.0806 
    114 H114       28.1972   34.7792    4.1633 H         1 UNK         0.0806 
    115 H115       28.3832   32.0696    2.7673 H         1 UNK         0.3010 
    116 H116       29.3573   32.9022    0.1905 H         1 UNK         0.0829 
    117 H117       27.5769   30.5280    0.9348 H         1 UNK         0.0813 
    118 H118       27.7995   31.1825   -0.6816 H         1 UNK         0.0813 
    119 H119       27.0087   32.1522    0.5501 H         1 UNK         0.0813 
    120 H120       29.7396   29.8438    2.0681 H         1 UNK         0.3038 
    121 H121       31.7457   28.7463    0.2836 H         1 UNK         0.0769 
    122 H122       30.2531   27.2682    1.5849 H         1 UNK         0.0811 
    123 H123       30.8389   27.9548    3.0995 H         1 UNK         0.0811 
    124 H124       31.9156   27.0109    2.0801 H         1 UNK         0.0811 
    125 H125       31.8415   31.1017    2.7173 H         1 UNK         0.3204 
    126 H126       33.3711   32.3832    3.6451 H         1 UNK         0.0748 
    127 H127       35.5238   31.0260    1.9386 H         1 UNK         0.0771 
    128 H128       34.5726   32.4301    1.4547 H         1 UNK         0.0771 
    129 H129       35.6805   32.5403    2.8132 H         1 UNK         0.0771 
    130 H130       32.3997   30.4582    5.1361 H         1 UNK         0.2980 
    131 H131       34.5497   29.9249    7.0230 H         1 UNK         0.0545 
    132 H132       32.9617   28.3191    8.8567 H         1 UNK         0.3459 
    133 H133       31.7798   29.4376    9.4838 H         1 UNK         0.3459 
    134 H134       33.9988   27.5091    7.3118 H         1 UNK         0.0616 
    135 H135       34.6624   27.8712    5.7497 H         1 UNK         0.0616 
    136 H136       34.0428   25.7692    4.6657 H         1 UNK         0.0634 
    137 H137       33.3279   25.0999    6.1155 H         1 UNK         0.0634 
@<TRIPOS>BOND
     1    1    2 1    
     2    1   72 1    
     3    1   73 1    
     4    1   74 1    
     5    2    3 2    
     6    2    4 am   BACKBONE|DICT|INTERRES
     7    4    5 1    
     8    4   75 1    
     9    5    6 1    
    10    5   35 1    
    11    5   76 1    
    12    6    7 1    
    13    6   77 1    
    14    6   78 1    
    15    7    8 1    
    16    8    9 1    
    17    8   79 1    
    18    8   80 1    
    19    9   10 ar   
    20    9   14 ar   
    21   10   11 ar   
    22   10   81 1    
    23   11   12 ar   
    24   11   71 1    
    25   12   13 ar   
    26   12   82 1    
    27   13   14 ar   
    28   13   15 1    
    29   14   83 1    
    30   15   16 1    
    31   15   84 1    
    32   15   85 1    
    33   16   17 1    
    34   17   18 1    
    35   17   86 1    
    36   17   87 1    
    37   18   19 1    
    38   18   37 1    
    39   18   88 1    
    40   19   20 am   BACKBONE|DICT|INTERRES
    41   19   89 1    
    42   20   21 2    
    43   20   22 1    
    44   22   23 1    
    45   22   24 1    
    46   22   90 1    
    47   23   91 1    
    48   23   92 1    
    49   23   93 1    
    50   24   25 am   BACKBONE|DICT|INTERRES
    51   24   94 1    
    52   25   26 2    
    53   25   27 1    
    54   27   28 1    
    55   27   29 1    
    56   27   95 1    
    57   28   96 1    
    58   28   97 1    
    59   28   98 1    
    60   29   30 am   BACKBONE|DICT|INTERRES
    61   29   99 1    
    62   30   31 2    
    63   30   32 1    
    64   32   33 1    
    65   32   34 1    
    66   32  100 1    
    67   33  101 1    
    68   33  102 1    
    69   33  103 1    
    70   34   35 am   BACKBONE|DICT|INTERRES
    71   34  104 1    
    72   35   36 2    
    73   37   38 2    
    74   37   39 am   BACKBONE|DICT|INTERRES
    75   39   40 1    
    76   39  105 1    
    77   40   41 1    
    78   40   42 1    
    79   40  106 1    
    80   41  107 1    
    81   41  108 1    
    82   41  109 1    
    83   42   43 2    
    84   42   44 am   BACKBONE|DICT|INTERRES
    85   44   45 1    
    86   44  110 1    
    87   45   46 1    
    88   45   47 1    
    89   45  111 1    
    90   46  112 1    
    91   46  113 1    
    92   46  114 1    
    93   47   48 2    
    94   47   49 am   BACKBONE|DICT|INTERRES
    95   49   50 1    
    96   49  115 1    
    97   50   51 1    
    98   50   52 1    
    99   50  116 1    
   100   51  117 1    
   101   51  118 1    
   102   51  119 1    
   103   52   53 2    
   104   52   54 am   BACKBONE|DICT|INTERRES
   105   54   55 1    
   106   54  120 1    
   107   55   56 1    
   108   55   57 1    
   109   55  121 1    
   110   56  122 1    
   111   56  123 1    
   112   56  124 1    
   113   57   58 2    
   114   57   59 am   BACKBONE|DICT|INTERRES
   115   59   60 1    
   116   59  125 1    
   117   60   61 1    
   118   60   62 1    
   119   60  126 1    
   120   61  127 1    
   121   61  128 1    
   122   61  129 1    
   123   62   63 2    
   124   62   64 am   BACKBONE|DICT|INTERRES
   125   64   65 1    
   126   64  130 1    
   127   65   66 1    
   128   65   69 1    
   129   65  131 1    
   130   66   67 am   BACKBONE|DICT|INTERRES
   131   66   68 2    
   132   67  132 1    
   133   67  133 1    
   134   69   70 1    
   135   69  134 1    
   136   69  135 1    
   137   70   71 1    
   138   71  136 1    
   139   71  137 1    
@<TRIPOS>SUBSTRUCTURE
     1 UNK         1 GROUP             0       ****    0 ROOT    
