@<TRIPOS>MOLECULE
3R136
137   139    1
SMALL
USER_CHARGES


@<TRIPOS>ATOM
      1 CA         28.9911   21.0317   -2.2340 C.3       0 UNK        -0.1979 
      2 C          28.9901   21.3793   -0.7521 C.2       0 UNK         0.4864 
      3 O          28.4235   20.6275    0.0424 O.2       0 UNK        -0.5359 
      4 N          29.6241   22.5072   -0.3966 N.am      1 UNK        -0.4318 
      5 CA         29.7313   23.1026    0.9444 C.3       1 UNK         0.0824 
      6 C6         30.3975   22.1677    1.9974 C.3       12 UNK        -0.0944 
      7 S7         32.1707   21.9294    1.6479 S.3       12 UNK        -0.2672 
      8 C8         32.9379   23.0011    2.9113 C.3       12 UNK         0.0333 
      9 C9         32.4278   24.4364    2.8495 C.ar      12 UNK        -0.0807 
     10 C10        31.7579   24.9976    3.9416 C.ar      12 UNK        -0.0894 
     11 C11        31.3015   26.3186    3.8905 C.ar      12 UNK        -0.0804 
     12 C12        31.4767   27.0652    2.7214 C.ar      12 UNK        -0.0824 
     13 C13        32.1289   26.5072    1.6184 C.ar      12 UNK        -0.0762 
     14 C14        32.6237   25.2029    1.6973 C.ar      12 UNK        -0.0782 
     15 C15        32.2955   27.3007    0.3334 C.3       12 UNK         0.0230 
     16 S16        30.9093   26.9933   -0.8044 S.3       12 UNK        -0.2608 
     17 C17        29.6805   28.1825   -0.1754 C.3       12 UNK        -0.0989 
     18 CA         28.4640   28.3035   -1.1235 C.3       5 UNK         0.0716 
     19 N          27.6677   27.0746   -1.1624 N.am      5 UNK        -0.4135 
     20 C          26.9456   26.6664   -2.2146 C.2       4 UNK         0.5031 
     21 O          26.9543   27.2223   -3.3136 O.2       4 UNK        -0.5229 
     22 CA         26.0452   25.4349   -2.0038 C.3       4 UNK         0.0329 
     23 CB         26.8117   24.1462   -2.3363 C.3       4 UNK        -0.2001 
     24 N          25.5075   25.3586   -0.6409 N.am      4 UNK        -0.4303 
     25 C          24.5777   26.2019   -0.1624 C.2       3 UNK         0.5044 
     26 O          24.0168   27.0544   -0.8512 O.2       3 UNK        -0.5152 
     27 CA         24.2171   26.1143    1.3336 C.3       3 UNK         0.0319 
     28 CB         22.9027   25.3402    1.5223 C.3       3 UNK        -0.2001 
     29 N          25.2483   25.5189    2.1885 N.am      3 UNK        -0.4354 
     30 C          26.5033   25.9642    2.3378 C.2       2 UNK         0.4964 
     31 O          26.9582   26.9394    1.7398 O.2       2 UNK        -0.5047 
     32 CA         27.4328   25.1616    3.2654 C.3       2 UNK         0.0288 
     33 CB         26.7042   24.1240    4.1494 C.3       2 UNK        -0.2113 
     34 N          28.5175   24.5122    2.5210 N.am      2 UNK        -0.4145 
     35 C          28.4025   23.6945    1.4611 C.2       1 UNK         0.5006 
     36 O          27.3292   23.4355    0.9085 O.2       1 UNK        -0.5103 
     37 C          27.5826   29.4981   -0.7163 C.2       5 UNK         0.5055 
     38 O          27.7682   30.5932   -1.2495 O.2       5 UNK        -0.5220 
     39 N          26.6586   29.2702    0.2303 N.am      6 UNK        -0.4450 
     40 CA         25.7199   30.2044    0.8647 C.3       6 UNK         0.0367 
     41 CB         24.8017   30.8955   -0.1615 C.3       6 UNK        -0.1929 
     42 C          26.4105   31.2169    1.7934 C.2       6 UNK         0.5070 
     43 O          25.9895   31.3687    2.9405 O.2       6 UNK        -0.5237 
     44 N          27.4713   31.8654    1.3026 N.am      7 UNK        -0.4739 
     45 CA         28.3891   32.6801    2.0926 C.3       7 UNK         0.0276 
     46 CB         29.1659   33.6157    1.1527 C.3       7 UNK        -0.1927 
     47 C          29.3603   31.7778    2.8681 C.2       7 UNK         0.5013 
     48 O          29.8574   30.7918    2.3143 O.2       7 UNK        -0.5193 
     49 N          29.6556   32.1538    4.1178 N.am      8 UNK        -0.4253 
     50 CA         30.6333   31.4830    4.9751 C.3       8 UNK         0.0242 
     51 CB         30.2893   31.7584    6.4506 C.3       8 UNK        -0.2000 
     52 C          32.0591   31.9278    4.6047 C.2       8 UNK         0.4948 
     53 O          32.6706   32.7118    5.3324 O.2       8 UNK        -0.5275 
     54 N          32.5348   31.4576    3.4436 N.am      9 UNK        -0.4246 
     55 CA         33.8081   31.8413    2.8237 C.3       9 UNK         0.0261 
     56 CB         33.8999   31.2000    1.4293 C.3       9 UNK        -0.1959 
     57 C          35.0560   31.4942    3.6563 C.2       9 UNK         0.5033 
     58 O          36.0353   32.2403    3.6093 O.2       9 UNK        -0.5390 
     59 N          34.9927   30.3832    4.3983 N.am      10 UNK        -0.4215 
     60 CA         36.0257   29.8947    5.3132 C.3       10 UNK         0.0240 
     61 CB         37.2949   29.4414    4.5605 C.3       10 UNK        -0.1982 
     62 C          35.4488   28.7495    6.1494 C.2       10 UNK         0.4970 
     63 O          35.5173   28.7974    7.3778 O.2       10 UNK        -0.4916 
     64 N          34.8604   27.7679    5.4530 N.am      11 UNK        -0.4279 
     65 CA         34.2079   26.5715    6.0053 C.3       11 UNK         0.1003 
     66 C          35.1931   25.6123    6.7420 C.2       11 UNK         0.5709 
     67 N          34.7019   24.6994    7.5706 N.am      11 UNK        -0.7358 
     68 O          36.4042   25.6478    6.5293 O.2       11 UNK        -0.4999 
     69 C69        32.9100   26.8903    6.8128 C.3       12 UNK        -0.0954 
     70 S70        31.7751   28.0586    5.9841 S.3       12 UNK        -0.2268 
     71 C71        30.6325   26.9503    5.1009 C.3       12 UNK         0.0203 
     72 H72        27.9681   20.9734   -2.6049 H         1 UNK         0.0888 
     73 H73        29.5240   21.7734   -2.8288 H         1 UNK         0.0888 
     74 H74        29.4674   20.0645   -2.3924 H         1 UNK         0.0888 
     75 H75        30.0609   23.0541   -1.1247 H         1 UNK         0.3017 
     76 H76        30.3763   23.9693    0.8020 H         1 UNK         0.0873 
     77 H77        29.9136   21.1916    2.0285 H         1 UNK         0.0745 
     78 H78        30.3000   22.5604    3.0105 H         1 UNK         0.0745 
     79 H79        34.0192   23.0002    2.7671 H         1 UNK         0.0705 
     80 H80        32.7598   22.5669    3.8964 H         1 UNK         0.0705 
     81 H81        31.6151   24.4160    4.8425 H         1 UNK         0.1334 
     82 H82        31.1083   28.0815    2.6734 H         1 UNK         0.1417 
     83 H83        33.1334   24.7686    0.8475 H         1 UNK         0.1562 
     84 H84        33.2255   27.0146   -0.1601 H         1 UNK         0.0748 
     85 H85        32.3812   28.3673    0.5452 H         1 UNK         0.0748 
     86 H86        30.1740   29.1509   -0.0644 H         1 UNK         0.0940 
     87 H87        29.3684   27.8825    0.8267 H         1 UNK         0.0940 
     88 H88        28.8413   28.5143   -2.1269 H         1 UNK         0.0703 
     89 H89        27.5694   26.5817   -0.2846 H         1 UNK         0.3081 
     90 H90        25.2035   25.5143   -2.6954 H         1 UNK         0.0719 
     91 H91        27.1270   24.1396   -3.3804 H         1 UNK         0.0809 
     92 H92        27.7087   24.0486   -1.7268 H         1 UNK         0.0809 
     93 H93        26.1966   23.2606   -2.1755 H         1 UNK         0.0809 
     94 H94        25.9273   24.6763   -0.0165 H         1 UNK         0.2990 
     95 H95        24.0622   27.1372    1.6827 H         1 UNK         0.0690 
     96 H96        22.5738   25.3614    2.5615 H         1 UNK         0.0788 
     97 H97        23.0031   24.2965    1.2212 H         1 UNK         0.0788 
     98 H98        22.1020   25.7767    0.9232 H         1 UNK         0.0788 
     99 H99        24.9860   24.6835    2.6915 H         1 UNK         0.2993 
    100 H100       27.8985   25.8933    3.9270 H         1 UNK         0.0949 
    101 H101       26.2547   23.3217    3.5627 H         1 UNK         0.0767 
    102 H102       27.3967   23.6618    4.8533 H         1 UNK         0.0767 
    103 H103       25.9161   24.5904    4.7425 H         1 UNK         0.0767 
    104 H104       29.4488   24.7219    2.8545 H         1 UNK         0.3013 
    105 H105       26.6851   28.3546    0.6767 H         1 UNK         0.3121 
    106 H106       25.0846   29.5839    1.4988 H         1 UNK         0.0774 
    107 H107       24.2836   30.1635   -0.7815 H         1 UNK         0.0815 
    108 H108       24.0403   31.4923    0.3421 H         1 UNK         0.0815 
    109 H109       25.3516   31.5664   -0.8217 H         1 UNK         0.0815 
    110 H110       27.7583   31.6316    0.3560 H         1 UNK         0.2987 
    111 H111       27.8125   33.2855    2.7958 H         1 UNK         0.0949 
    112 H112       28.4927   34.2734    0.6025 H         1 UNK         0.0806 
    113 H113       29.8537   34.2507    1.7129 H         1 UNK         0.0806 
    114 H114       29.7569   33.0568    0.4254 H         1 UNK         0.0806 
    115 H115       29.2376   32.9958    4.4876 H         1 UNK         0.3010 
    116 H116       30.5632   30.4061    4.8132 H         1 UNK         0.0829 
    117 H117       31.0009   31.2629    7.1127 H         1 UNK         0.0813 
    118 H118       30.3125   32.8237    6.6835 H         1 UNK         0.0813 
    119 H119       29.2983   31.3806    6.7027 H         1 UNK         0.0813 
    120 H120       31.9075   30.8871    2.8871 H         1 UNK         0.3038 
    121 H121       33.7929   32.9261    2.6995 H         1 UNK         0.0769 
    122 H122       34.8139   31.5069    0.9188 H         1 UNK         0.0811 
    123 H123       33.0624   31.4973    0.7976 H         1 UNK         0.0811 
    124 H124       33.9094   30.1111    1.4862 H         1 UNK         0.0811 
    125 H125       34.1170   29.8779    4.4144 H         1 UNK         0.3204 
    126 H126       36.2904   30.7060    5.9946 H         1 UNK         0.0748 
    127 H127       38.0130   28.9879    5.2453 H         1 UNK         0.0771 
    128 H128       37.0696   28.7051    3.7884 H         1 UNK         0.0771 
    129 H129       37.7995   30.2804    4.0819 H         1 UNK         0.0771 
    130 H130       34.9180   27.7925    4.4462 H         1 UNK         0.2980 
    131 H131       33.9147   26.0065    5.1237 H         1 UNK         0.0545 
    132 H132       33.7134   24.6358    7.7528 H         1 UNK         0.3459 
    133 H133       35.3377   24.0667    8.0305 H         1 UNK         0.3459 
    134 H134       32.3568   25.9759    7.0301 H         1 UNK         0.0616 
    135 H135       33.1704   27.3221    7.7804 H         1 UNK         0.0616 
    136 H136       30.2515   26.1895    5.7839 H         1 UNK         0.0634 
    137 H137       29.7679   27.5302    4.7744 H         1 UNK         0.0634 
@<TRIPOS>BOND
     1    1    2 1    
     2    1   72 1    
     3    1   73 1    
     4    1   74 1    
     5    2    3 2    
     6    2    4 am   BACKBONE|DICT|INTERRES
     7    4    5 1    
     8    4   75 1    
     9    5    6 1    
    10    5   35 1    
    11    5   76 1    
    12    6    7 1    
    13    6   77 1    
    14    6   78 1    
    15    7    8 1    
    16    8    9 1    
    17    8   79 1    
    18    8   80 1    
    19    9   10 ar   
    20    9   14 ar   
    21   10   11 ar   
    22   10   81 1    
    23   11   12 ar   
    24   11   71 1    
    25   12   13 ar   
    26   12   82 1    
    27   13   14 ar   
    28   13   15 1    
    29   14   83 1    
    30   15   16 1    
    31   15   84 1    
    32   15   85 1    
    33   16   17 1    
    34   17   18 1    
    35   17   86 1    
    36   17   87 1    
    37   18   19 1    
    38   18   37 1    
    39   18   88 1    
    40   19   20 am   BACKBONE|DICT|INTERRES
    41   19   89 1    
    42   20   21 2    
    43   20   22 1    
    44   22   23 1    
    45   22   24 1    
    46   22   90 1    
    47   23   91 1    
    48   23   92 1    
    49   23   93 1    
    50   24   25 am   BACKBONE|DICT|INTERRES
    51   24   94 1    
    52   25   26 2    
    53   25   27 1    
    54   27   28 1    
    55   27   29 1    
    56   27   95 1    
    57   28   96 1    
    58   28   97 1    
    59   28   98 1    
    60   29   30 am   BACKBONE|DICT|INTERRES
    61   29   99 1    
    62   30   31 2    
    63   30   32 1    
    64   32   33 1    
    65   32   34 1    
    66   32  100 1    
    67   33  101 1    
    68   33  102 1    
    69   33  103 1    
    70   34   35 am   BACKBONE|DICT|INTERRES
    71   34  104 1    
    72   35   36 2    
    73   37   38 2    
    74   37   39 am   BACKBONE|DICT|INTERRES
    75   39   40 1    
    76   39  105 1    
    77   40   41 1    
    78   40   42 1    
    79   40  106 1    
    80   41  107 1    
    81   41  108 1    
    82   41  109 1    
    83   42   43 2    
    84   42   44 am   BACKBONE|DICT|INTERRES
    85   44   45 1    
    86   44  110 1    
    87   45   46 1    
    88   45   47 1    
    89   45  111 1    
    90   46  112 1    
    91   46  113 1    
    92   46  114 1    
    93   47   48 2    
    94   47   49 am   BACKBONE|DICT|INTERRES
    95   49   50 1    
    96   49  115 1    
    97   50   51 1    
    98   50   52 1    
    99   50  116 1    
   100   51  117 1    
   101   51  118 1    
   102   51  119 1    
   103   52   53 2    
   104   52   54 am   BACKBONE|DICT|INTERRES
   105   54   55 1    
   106   54  120 1    
   107   55   56 1    
   108   55   57 1    
   109   55  121 1    
   110   56  122 1    
   111   56  123 1    
   112   56  124 1    
   113   57   58 2    
   114   57   59 am   BACKBONE|DICT|INTERRES
   115   59   60 1    
   116   59  125 1    
   117   60   61 1    
   118   60   62 1    
   119   60  126 1    
   120   61  127 1    
   121   61  128 1    
   122   61  129 1    
   123   62   63 2    
   124   62   64 am   BACKBONE|DICT|INTERRES
   125   64   65 1    
   126   64  130 1    
   127   65   66 1    
   128   65   69 1    
   129   65  131 1    
   130   66   67 am   BACKBONE|DICT|INTERRES
   131   66   68 2    
   132   67  132 1    
   133   67  133 1    
   134   69   70 1    
   135   69  134 1    
   136   69  135 1    
   137   70   71 1    
   138   71  136 1    
   139   71  137 1    
@<TRIPOS>SUBSTRUCTURE
     1 UNK         1 GROUP             0       ****    0 ROOT    
