@<TRIPOS>MOLECULE
3R136
137   139    1
SMALL
USER_CHARGES


@<TRIPOS>ATOM
      1 CA         30.4298   21.3389   -3.2801 C.3       0 UNK        -0.1979 
      2 C          29.6153   21.8958   -2.1219 C.2       0 UNK         0.4864 
      3 O          29.0337   21.1215   -1.3612 O.2       0 UNK        -0.5359 
      4 N          29.5641   23.2309   -1.9965 N.am      1 UNK        -0.4318 
      5 CA         28.8808   23.9932   -0.9369 C.3       1 UNK         0.0824 
      6 C6         29.4592   23.7324    0.4822 C.3       12 UNK        -0.0944 
      7 S7         31.2252   24.1622    0.6290 S.3       12 UNK        -0.2672 
      8 C8         31.7142   23.1522    2.0650 C.3       12 UNK         0.0333 
      9 C9         31.3377   23.8229    3.3791 C.ar      12 UNK        -0.0807 
     10 C10        32.2732   24.6162    4.0521 C.ar      12 UNK        -0.0894 
     11 C11        31.9415   25.2570    5.2548 C.ar      12 UNK        -0.0804 
     12 C12        30.6534   25.0884    5.7708 C.ar      12 UNK        -0.0824 
     13 C13        29.7058   24.3018    5.1080 C.ar      12 UNK        -0.0762 
     14 C14        30.0598   23.6554    3.9208 C.ar      12 UNK        -0.0782 
     15 C15        28.2931   24.1769    5.6685 C.3       12 UNK         0.0230 
     16 S16        27.0540   25.0890    4.6815 S.3       12 UNK        -0.2608 
     17 C17        27.8517   26.7152    4.4544 C.3       12 UNK        -0.0989 
     18 CA         28.4199   26.8369    3.0165 C.3       5 UNK         0.0716 
     19 N          27.3749   27.2370    2.0642 N.am      5 UNK        -0.4135 
     20 C          27.5161   27.4530    0.7483 C.2       4 UNK         0.5031 
     21 O          28.5660   27.2909    0.1229 O.2       4 UNK        -0.5229 
     22 CA         26.2513   27.8939    0.0037 C.3       4 UNK         0.0329 
     23 CB         26.5373   28.3510   -1.4424 C.3       4 UNK        -0.2001 
     24 N          25.2936   26.7912   -0.0056 N.am      4 UNK        -0.4303 
     25 C          23.9701   26.9272   -0.1651 C.2       3 UNK         0.5044 
     26 O          23.4038   28.0206   -0.2213 O.2       3 UNK        -0.5152 
     27 CA         23.1388   25.6302   -0.2860 C.3       3 UNK         0.0319 
     28 CB         21.8110   25.8403   -1.0454 C.3       3 UNK        -0.2001 
     29 N          23.8903   24.5030   -0.8549 N.am      3 UNK        -0.4354 
     30 C          24.4773   24.4372   -2.0605 C.2       2 UNK         0.4964 
     31 O          24.4074   25.3152   -2.9224 O.2       2 UNK        -0.5047 
     32 CA         25.3385   23.1876   -2.3185 C.3       2 UNK         0.0288 
     33 CB         25.1345   22.6434   -3.7437 C.3       2 UNK        -0.2113 
     34 N          26.7670   23.4427   -2.1051 N.am      2 UNK        -0.4145 
     35 C          27.3382   23.8511   -0.9601 C.2       1 UNK         0.5006 
     36 O          26.6916   24.1233    0.0548 O.2       1 UNK        -0.5103 
     37 C          29.6415   27.7712    2.9543 C.2       5 UNK         0.5055 
     38 O          29.6088   28.8474    3.5533 O.2       5 UNK        -0.5220 
     39 N          30.6569   27.3548    2.1783 N.am      6 UNK        -0.4450 
     40 CA         31.8597   28.0994    1.7896 C.3       6 UNK         0.0367 
     41 CB         32.9005   28.0704    2.9197 C.3       6 UNK        -0.1929 
     42 C          31.5409   29.5198    1.2944 C.2       6 UNK         0.5070 
     43 O          32.1189   30.4889    1.7927 O.2       6 UNK        -0.5237 
     44 N          30.5608   29.6078    0.3820 N.am      7 UNK        -0.4739 
     45 CA         29.9268   30.8125   -0.1703 C.3       7 UNK         0.0276 
     46 CB         30.9379   31.6974   -0.9271 C.3       7 UNK        -0.1927 
     47 C          29.1373   31.6166    0.8784 C.2       7 UNK         0.5013 
     48 O          27.9293   31.7965    0.7223 O.2       7 UNK        -0.5193 
     49 N          29.8323   32.0649    1.9263 N.am      8 UNK        -0.4253 
     50 CA         29.3092   32.8005    3.0713 C.3       8 UNK         0.0242 
     51 CB         29.1291   34.2898    2.7109 C.3       8 UNK        -0.2000 
     52 C          30.2363   32.5717    4.2755 C.2       8 UNK         0.4948 
     53 O          30.7176   33.5370    4.8713 O.2       8 UNK        -0.5275 
     54 N          30.4832   31.2922    4.5961 N.am      9 UNK        -0.4246 
     55 CA         31.3128   30.7914    5.6973 C.3       9 UNK         0.0261 
     56 CB         30.6683   31.1204    7.0610 C.3       9 UNK        -0.1959 
     57 C          32.7889   31.2255    5.6043 C.2       9 UNK         0.5033 
     58 O          33.3755   31.6232    6.6121 O.2       9 UNK        -0.5390 
     59 N          33.3797   31.1176    4.4045 N.am      10 UNK        -0.4215 
     60 CA         34.7829   31.4554    4.1311 C.3       10 UNK         0.0240 
     61 CB         34.9688   31.6578    2.6166 C.3       10 UNK        -0.1982 
     62 C          35.8228   30.4559    4.6879 C.2       10 UNK         0.4970 
     63 O          37.0168   30.6830    4.4845 O.2       10 UNK        -0.4916 
     64 N          35.3851   29.3803    5.3610 N.am      11 UNK        -0.4279 
     65 CA         36.2452   28.4124    6.0644 C.3       11 UNK         0.1003 
     66 C          37.1303   29.0750    7.1588 C.2       11 UNK         0.5709 
     67 N          38.3754   28.6402    7.2989 N.am      11 UNK        -0.7358 
     68 O          36.6839   29.9416    7.9084 O.2       11 UNK        -0.4999 
     69 C69        35.4233   27.2527    6.6884 C.3       12 UNK        -0.0954 
     70 S70        34.6394   26.1758    5.4448 S.3       12 UNK        -0.2268 
     71 C71        32.9097   26.1565    6.0315 C.3       12 UNK         0.0203 
     72 H72        29.7941   20.7420   -3.9336 H         1 UNK         0.0888 
     73 H73        30.8843   22.1288   -3.8778 H         1 UNK         0.0888 
     74 H74        31.2271   20.6991   -2.9028 H         1 UNK         0.0888 
     75 H75        30.0714   23.7980   -2.6620 H         1 UNK         0.3017 
     76 H76        29.0645   25.0421   -1.1723 H         1 UNK         0.0873 
     77 H77        28.9228   24.3164    1.2256 H         1 UNK         0.0745 
     78 H78        29.3136   22.6888    0.7643 H         1 UNK         0.0745 
     79 H79        32.7932   22.9949    2.0254 H         1 UNK         0.0705 
     80 H80        31.2654   22.1599    1.9996 H         1 UNK         0.0705 
     81 H81        33.2564   24.7333    3.6204 H         1 UNK         0.1334 
     82 H82        30.3814   25.5883    6.6908 H         1 UNK         0.1417 
     83 H83        29.3293   23.0466    3.4055 H         1 UNK         0.1562 
     84 H84        28.2553   24.5380    6.6974 H         1 UNK         0.0748 
     85 H85        28.0099   23.1241    5.7067 H         1 UNK         0.0748 
     86 H86        28.6238   26.8429    5.2141 H         1 UNK         0.0940 
     87 H87        27.1263   27.5052    4.6571 H         1 UNK         0.0940 
     88 H88        28.7738   25.8553    2.7118 H         1 UNK         0.0703 
     89 H89        26.4595   27.3773    2.4653 H         1 UNK         0.3081 
     90 H90        25.8314   28.7381    0.5550 H         1 UNK         0.0719 
     91 H91        26.9313   27.5359   -2.0509 H         1 UNK         0.0809 
     92 H92        25.6355   28.7228   -1.9289 H         1 UNK         0.0809 
     93 H93        27.2679   29.1594   -1.4603 H         1 UNK         0.0809 
     94 H94        25.6884   25.8560    0.0618 H         1 UNK         0.2990 
     95 H95        22.8897   25.3416    0.7361 H         1 UNK         0.0690 
     96 H96        21.2378   24.9153   -1.1064 H         1 UNK         0.0788 
     97 H97        21.9785   26.1993   -2.0614 H         1 UNK         0.0788 
     98 H98        21.1825   26.5755   -0.5412 H         1 UNK         0.0788 
     99 H99        24.0691   23.7436   -0.2113 H         1 UNK         0.2993 
    100 H100       25.0340   22.4066   -1.6184 H         1 UNK         0.0949 
    101 H101       25.4790   23.3491   -4.5009 H         1 UNK         0.0767 
    102 H102       25.6704   21.7053   -3.8908 H         1 UNK         0.0767 
    103 H103       24.0792   22.4464   -3.9380 H         1 UNK         0.0767 
    104 H104       27.3739   23.2662   -2.8917 H         1 UNK         0.3013 
    105 H105       30.5413   26.4684    1.7036 H         1 UNK         0.3121 
    106 H106       32.2898   27.5749    0.9349 H         1 UNK         0.0774 
    107 H107       33.7848   28.6554    2.6684 H         1 UNK         0.0815 
    108 H108       32.4948   28.4509    3.8551 H         1 UNK         0.0815 
    109 H109       33.2421   27.0529    3.0879 H         1 UNK         0.0815 
    110 H110       30.1013   28.7384    0.1265 H         1 UNK         0.2987 
    111 H111       29.2009   30.4559   -0.9019 H         1 UNK         0.0949 
    112 H112       30.4362   32.5466   -1.3928 H         1 UNK         0.0806 
    113 H113       31.7108   32.1000   -0.2720 H         1 UNK         0.0806 
    114 H114       31.4329   31.1389   -1.7215 H         1 UNK         0.0806 
    115 H115       30.8089   31.7799    1.9796 H         1 UNK         0.3010 
    116 H116       28.3345   32.3879    3.3406 H         1 UNK         0.0829 
    117 H117       28.4270   34.4187    1.8871 H         1 UNK         0.0813 
    118 H118       28.7371   34.8530    3.5587 H         1 UNK         0.0813 
    119 H119       30.0748   34.7486    2.4202 H         1 UNK         0.0813 
    120 H120       30.0511   30.5553    4.0379 H         1 UNK         0.3038 
    121 H121       31.3140   29.7050    5.5997 H         1 UNK         0.0769 
    122 H122       31.2128   30.6431    7.8767 H         1 UNK         0.0811 
    123 H123       29.6392   30.7644    7.1087 H         1 UNK         0.0811 
    124 H124       30.6626   32.1928    7.2583 H         1 UNK         0.0811 
    125 H125       32.8295   30.8185    3.6029 H         1 UNK         0.3204 
    126 H126       34.9888   32.4122    4.6154 H         1 UNK         0.0748 
    127 H127       35.9692   32.0277    2.3886 H         1 UNK         0.0771 
    128 H128       34.8337   30.7283    2.0635 H         1 UNK         0.0771 
    129 H129       34.2602   32.3870    2.2229 H         1 UNK         0.0771 
    130 H130       34.3942   29.2763    5.5040 H         1 UNK         0.2980 
    131 H131       36.9140   27.9872    5.3134 H         1 UNK         0.0545 
    132 H132       38.9582   29.0462    8.0142 H         1 UNK         0.3459 
    133 H133       38.7473   27.9201    6.6991 H         1 UNK         0.3459 
    134 H134       34.6685   27.6481    7.3708 H         1 UNK         0.0616 
    135 H135       36.0663   26.6093    7.2922 H         1 UNK         0.0616 
    136 H136       32.9127   25.8426    7.0765 H         1 UNK         0.0634 
    137 H137       32.5258   27.1772    6.0130 H         1 UNK         0.0634 
@<TRIPOS>BOND
     1    1    2 1    
     2    1   72 1    
     3    1   73 1    
     4    1   74 1    
     5    2    3 2    
     6    2    4 am   BACKBONE|DICT|INTERRES
     7    4    5 1    
     8    4   75 1    
     9    5    6 1    
    10    5   35 1    
    11    5   76 1    
    12    6    7 1    
    13    6   77 1    
    14    6   78 1    
    15    7    8 1    
    16    8    9 1    
    17    8   79 1    
    18    8   80 1    
    19    9   10 ar   
    20    9   14 ar   
    21   10   11 ar   
    22   10   81 1    
    23   11   12 ar   
    24   11   71 1    
    25   12   13 ar   
    26   12   82 1    
    27   13   14 ar   
    28   13   15 1    
    29   14   83 1    
    30   15   16 1    
    31   15   84 1    
    32   15   85 1    
    33   16   17 1    
    34   17   18 1    
    35   17   86 1    
    36   17   87 1    
    37   18   19 1    
    38   18   37 1    
    39   18   88 1    
    40   19   20 am   BACKBONE|DICT|INTERRES
    41   19   89 1    
    42   20   21 2    
    43   20   22 1    
    44   22   23 1    
    45   22   24 1    
    46   22   90 1    
    47   23   91 1    
    48   23   92 1    
    49   23   93 1    
    50   24   25 am   BACKBONE|DICT|INTERRES
    51   24   94 1    
    52   25   26 2    
    53   25   27 1    
    54   27   28 1    
    55   27   29 1    
    56   27   95 1    
    57   28   96 1    
    58   28   97 1    
    59   28   98 1    
    60   29   30 am   BACKBONE|DICT|INTERRES
    61   29   99 1    
    62   30   31 2    
    63   30   32 1    
    64   32   33 1    
    65   32   34 1    
    66   32  100 1    
    67   33  101 1    
    68   33  102 1    
    69   33  103 1    
    70   34   35 am   BACKBONE|DICT|INTERRES
    71   34  104 1    
    72   35   36 2    
    73   37   38 2    
    74   37   39 am   BACKBONE|DICT|INTERRES
    75   39   40 1    
    76   39  105 1    
    77   40   41 1    
    78   40   42 1    
    79   40  106 1    
    80   41  107 1    
    81   41  108 1    
    82   41  109 1    
    83   42   43 2    
    84   42   44 am   BACKBONE|DICT|INTERRES
    85   44   45 1    
    86   44  110 1    
    87   45   46 1    
    88   45   47 1    
    89   45  111 1    
    90   46  112 1    
    91   46  113 1    
    92   46  114 1    
    93   47   48 2    
    94   47   49 am   BACKBONE|DICT|INTERRES
    95   49   50 1    
    96   49  115 1    
    97   50   51 1    
    98   50   52 1    
    99   50  116 1    
   100   51  117 1    
   101   51  118 1    
   102   51  119 1    
   103   52   53 2    
   104   52   54 am   BACKBONE|DICT|INTERRES
   105   54   55 1    
   106   54  120 1    
   107   55   56 1    
   108   55   57 1    
   109   55  121 1    
   110   56  122 1    
   111   56  123 1    
   112   56  124 1    
   113   57   58 2    
   114   57   59 am   BACKBONE|DICT|INTERRES
   115   59   60 1    
   116   59  125 1    
   117   60   61 1    
   118   60   62 1    
   119   60  126 1    
   120   61  127 1    
   121   61  128 1    
   122   61  129 1    
   123   62   63 2    
   124   62   64 am   BACKBONE|DICT|INTERRES
   125   64   65 1    
   126   64  130 1    
   127   65   66 1    
   128   65   69 1    
   129   65  131 1    
   130   66   67 am   BACKBONE|DICT|INTERRES
   131   66   68 2    
   132   67  132 1    
   133   67  133 1    
   134   69   70 1    
   135   69  134 1    
   136   69  135 1    
   137   70   71 1    
   138   71  136 1    
   139   71  137 1    
@<TRIPOS>SUBSTRUCTURE
     1 UNK         1 GROUP             0       ****    0 ROOT    
