@<TRIPOS>MOLECULE
3R136
137   139    1
SMALL
USER_CHARGES


@<TRIPOS>ATOM
      1 CA         26.6071   21.4547    1.2484 C.3       0 UNK        -0.1979 
      2 C          27.4243   22.1118    0.1463 C.2       0 UNK         0.4864 
      3 O          27.4361   21.6258   -0.9859 O.2       0 UNK        -0.5359 
      4 N          28.0849   23.2311    0.4617 N.am      1 UNK        -0.4318 
      5 CA         28.8962   24.0332   -0.4552 C.3       1 UNK         0.0824 
      6 C6         29.8694   24.9580    0.3153 C.3       12 UNK        -0.0944 
      7 S7         31.2696   24.0132    1.0005 S.3       12 UNK        -0.2672 
      8 C8         30.7120   23.6200    2.6932 C.3       12 UNK         0.0333 
      9 C9         30.7565   24.8172    3.6341 C.ar      12 UNK        -0.0807 
     10 C10        31.9455   25.5310    3.8069 C.ar      12 UNK        -0.0894 
     11 C11        32.0077   26.6126    4.6882 C.ar      12 UNK        -0.0804 
     12 C12        30.8680   26.9725    5.4140 C.ar      12 UNK        -0.0824 
     13 C13        29.6764   26.2514    5.2736 C.ar      12 UNK        -0.0762 
     14 C14        29.6273   25.1771    4.3768 C.ar      12 UNK        -0.0782 
     15 C15        28.4701   26.6042    6.1413 C.3       12 UNK         0.0230 
     16 S16        26.9002   26.7226    5.2191 S.3       12 UNK        -0.2608 
     17 C17        27.2564   28.0872    4.0656 C.3       12 UNK        -0.0989 
     18 CA         27.3606   27.6072    2.5929 C.3       5 UNK         0.0716 
     19 N          26.0823   27.1351    2.0650 N.am      5 UNK        -0.4135 
     20 C          25.7441   25.8565    1.8702 C.2       4 UNK         0.5031 
     21 O          26.4764   24.9026    2.1450 O.2       4 UNK        -0.5229 
     22 CA         24.3632   25.5860    1.2507 C.3       4 UNK         0.0329 
     23 CB         23.6230   26.8480    0.7509 C.3       4 UNK        -0.2001 
     24 N          24.5246   24.6392    0.1514 N.am      4 UNK        -0.4303 
     25 C          23.5902   23.7843   -0.2843 C.2       3 UNK         0.5044 
     26 O          22.4691   23.6951    0.2194 O.2       3 UNK        -0.5152 
     27 CA         23.9635   22.8534   -1.4598 C.3       3 UNK         0.0319 
     28 CB         22.7682   22.5713   -2.3956 C.3       3 UNK        -0.2001 
     29 N          25.1447   23.2870   -2.2189 N.am      3 UNK        -0.4354 
     30 C          25.2758   24.3925   -2.9719 C.2       2 UNK         0.4964 
     31 O          24.3642   25.1921   -3.1880 O.2       2 UNK        -0.5047 
     32 CA         26.6846   24.6533   -3.5457 C.3       2 UNK         0.0288 
     33 CB         26.8640   26.0926   -4.0691 C.3       2 UNK        -0.2113 
     34 N          27.7407   24.2959   -2.5878 N.am      2 UNK        -0.4145 
     35 C          27.9414   24.8189   -1.3678 C.2       1 UNK         0.5006 
     36 O          27.3550   25.8082   -0.9212 O.2       1 UNK        -0.5103 
     37 C          27.8945   28.7030    1.6551 C.2       5 UNK         0.5055 
     38 O          28.1970   29.8056    2.1106 O.2       5 UNK        -0.5220 
     39 N          28.0166   28.4044    0.3522 N.am      6 UNK        -0.4450 
     40 CA         28.5680   29.3446   -0.6369 C.3       6 UNK         0.0367 
     41 CB         28.3414   28.8000   -2.0531 C.3       6 UNK        -0.1929 
     42 C          30.0561   29.6840   -0.4175 C.2       6 UNK         0.5070 
     43 O          30.5130   30.7306   -0.8762 O.2       6 UNK        -0.5237 
     44 N          30.7758   28.8084    0.2951 N.am      7 UNK        -0.4739 
     45 CA         32.1825   28.9649    0.6634 C.3       7 UNK         0.0276 
     46 CB         32.8487   27.5781    0.6312 C.3       7 UNK        -0.1927 
     47 C          32.3849   29.6398    2.0345 C.2       7 UNK         0.5013 
     48 O          33.5225   29.6573    2.5050 O.2       7 UNK        -0.5193 
     49 N          31.3162   30.1724    2.6583 N.am      8 UNK        -0.4253 
     50 CA         31.2730   30.7294    4.0243 C.3       8 UNK         0.0242 
     51 CB         29.9403   31.4586    4.2589 C.3       8 UNK        -0.2000 
     52 C          32.4359   31.6521    4.4264 C.2       8 UNK         0.4948 
     53 O          32.8823   31.5845    5.5718 O.2       8 UNK        -0.5275 
     54 N          32.9407   32.4531    3.4782 N.am      9 UNK        -0.4246 
     55 CA         34.1035   33.3316    3.6428 C.3       9 UNK         0.0261 
     56 CB         34.3175   34.1295    2.3464 C.3       9 UNK        -0.1959 
     57 C          35.4046   32.6085    4.0487 C.2       9 UNK         0.5033 
     58 O          36.2660   33.2395    4.6630 O.2       9 UNK        -0.5390 
     59 N          35.5284   31.3134    3.7219 N.am      10 UNK        -0.4215 
     60 CA         36.6508   30.4665    4.1301 C.3       10 UNK         0.0240 
     61 CB         36.7799   29.2918    3.1457 C.3       10 UNK        -0.1982 
     62 C          36.5210   29.9407    5.5721 C.2       10 UNK         0.4970 
     63 O          37.5362   29.5373    6.1416 O.2       10 UNK        -0.4916 
     64 N          35.3013   29.9309    6.1266 N.am      11 UNK        -0.4279 
     65 CA         34.9907   29.4074    7.4671 C.3       11 UNK         0.1003 
     66 C          34.7256   30.5356    8.4983 C.2       11 UNK         0.5709 
     67 N          34.1646   31.6717    8.1031 N.am      11 UNK        -0.7358 
     68 O          35.0472   30.3821    9.6742 O.2       11 UNK        -0.4999 
     69 C69        33.8061   28.4053    7.4329 C.3       12 UNK        -0.0954 
     70 S70        34.1672   26.9452    6.3970 S.3       12 UNK        -0.2268 
     71 C71        33.3124   27.3784    4.8512 C.3       12 UNK         0.0203 
     72 H72        26.6312   22.0348    2.1712 H         1 UNK         0.0888 
     73 H73        26.9991   20.4608    1.4618 H         1 UNK         0.0888 
     74 H74        25.5670   21.3523    0.9432 H         1 UNK         0.0888 
     75 H75        27.8843   23.6716    1.3538 H         1 UNK         0.3017 
     76 H76        29.4884   23.3600   -1.0796 H         1 UNK         0.0873 
     77 H77        29.3594   25.5021    1.1104 H         1 UNK         0.0745 
     78 H78        30.2915   25.7122   -0.3518 H         1 UNK         0.0745 
     79 H79        29.7132   23.1848    2.6579 H         1 UNK         0.0705 
     80 H80        31.3641   22.8444    3.0967 H         1 UNK         0.0705 
     81 H81        32.8266   25.2398    3.2513 H         1 UNK         0.1334 
     82 H82        30.9199   27.7975    6.1107 H         1 UNK         0.1417 
     83 H83        28.7095   24.6140    4.2697 H         1 UNK         0.1562 
     84 H84        28.6335   27.5457    6.6683 H         1 UNK         0.0748 
     85 H85        28.3630   25.8388    6.9108 H         1 UNK         0.0748 
     86 H86        28.1850   28.5658    4.3807 H         1 UNK         0.0940 
     87 H87        26.4778   28.8449    4.1700 H         1 UNK         0.0940 
     88 H88        28.0988   26.8055    2.5548 H         1 UNK         0.0703 
     89 H89        25.4307   27.8538    1.7841 H         1 UNK         0.3081 
     90 H90        23.7645   25.1195    2.0357 H         1 UNK         0.0719 
     91 H91        24.1839   27.3640   -0.0301 H         1 UNK         0.0809 
     92 H92        22.6488   26.5910    0.3345 H         1 UNK         0.0809 
     93 H93        23.4369   27.5530    1.5619 H         1 UNK         0.0809 
     94 H94        25.4322   24.6549   -0.2961 H         1 UNK         0.2990 
     95 H95        24.2421   21.9024   -1.0050 H         1 UNK         0.0690 
     96 H96        23.0519   21.9108   -3.2148 H         1 UNK         0.0788 
     97 H97        22.3634   23.4875   -2.8264 H         1 UNK         0.0788 
     98 H98        21.9556   22.0833   -1.8560 H         1 UNK         0.0788 
     99 H99        25.9658   22.7036   -2.0922 H         1 UNK         0.2993 
    100 H100       26.7978   23.9775   -4.3949 H         1 UNK         0.0949 
    101 H101       26.2196   26.2752   -4.9298 H         1 UNK         0.0767 
    102 H102       26.5980   26.8257   -3.3098 H         1 UNK         0.0767 
    103 H103       27.8903   26.2827   -4.3830 H         1 UNK         0.0767 
    104 H104       28.2631   23.4624   -2.8244 H         1 UNK         0.3013 
    105 H105       27.7261   27.4908    0.0093 H         1 UNK         0.3121 
    106 H106       28.0147   30.2823   -0.5486 H         1 UNK         0.0774 
    107 H107       27.2766   28.7078   -2.2625 H         1 UNK         0.0815 
    108 H108       28.8061   27.8236   -2.1927 H         1 UNK         0.0815 
    109 H109       28.7585   29.4715   -2.8050 H         1 UNK         0.0815 
    110 H110       30.3101   27.9826    0.6400 H         1 UNK         0.2987 
    111 H111       32.6846   29.5951   -0.0739 H         1 UNK         0.0949 
    112 H112       32.4100   26.9062    1.3681 H         1 UNK         0.0806 
    113 H113       32.7481   27.1108   -0.3484 H         1 UNK         0.0806 
    114 H114       33.9162   27.6449    0.8460 H         1 UNK         0.0806 
    115 H115       30.4218   30.1119    2.1867 H         1 UNK         0.3010 
    116 H116       31.3028   29.8805    4.7075 H         1 UNK         0.0829 
    117 H117       29.1057   30.7614    4.2926 H         1 UNK         0.0813 
    118 H118       29.9388   31.9872    5.2137 H         1 UNK         0.0813 
    119 H119       29.7369   32.1927    3.4786 H         1 UNK         0.0813 
    120 H120       32.5186   32.4242    2.5615 H         1 UNK         0.3038 
    121 H121       33.8659   34.0354    4.4431 H         1 UNK         0.0769 
    122 H122       34.5281   33.4744    1.5000 H         1 UNK         0.0811 
    123 H123       35.1600   34.8158    2.4446 H         1 UNK         0.0811 
    124 H124       33.4417   34.7297    2.0989 H         1 UNK         0.0811 
    125 H125       34.7702   30.8484    3.2238 H         1 UNK         0.3204 
    126 H126       37.5706   31.0528    4.0755 H         1 UNK         0.0748 
    127 H127       36.8923   29.6427    2.1198 H         1 UNK         0.0771 
    128 H128       37.6543   28.6824    3.3781 H         1 UNK         0.0771 
    129 H129       35.9092   28.6363    3.1822 H         1 UNK         0.0771 
    130 H130       34.5275   30.3565    5.6319 H         1 UNK         0.2980 
    131 H131       35.8536   28.8569    7.8465 H         1 UNK         0.0545 
    132 H132       34.0041   32.4032    8.7763 H         1 UNK         0.3459 
    133 H133       33.8057   31.7654    7.1564 H         1 UNK         0.3459 
    134 H134       33.5911   28.0396    8.4386 H         1 UNK         0.0616 
    135 H135       32.8932   28.8946    7.0889 H         1 UNK         0.0616 
    136 H136       33.9820   27.1676    4.0161 H         1 UNK         0.0634 
    137 H137       33.1251   28.4497    4.8156 H         1 UNK         0.0634 
@<TRIPOS>BOND
     1    1    2 1    
     2    1   72 1    
     3    1   73 1    
     4    1   74 1    
     5    2    3 2    
     6    2    4 am   BACKBONE|DICT|INTERRES
     7    4    5 1    
     8    4   75 1    
     9    5    6 1    
    10    5   35 1    
    11    5   76 1    
    12    6    7 1    
    13    6   77 1    
    14    6   78 1    
    15    7    8 1    
    16    8    9 1    
    17    8   79 1    
    18    8   80 1    
    19    9   10 ar   
    20    9   14 ar   
    21   10   11 ar   
    22   10   81 1    
    23   11   12 ar   
    24   11   71 1    
    25   12   13 ar   
    26   12   82 1    
    27   13   14 ar   
    28   13   15 1    
    29   14   83 1    
    30   15   16 1    
    31   15   84 1    
    32   15   85 1    
    33   16   17 1    
    34   17   18 1    
    35   17   86 1    
    36   17   87 1    
    37   18   19 1    
    38   18   37 1    
    39   18   88 1    
    40   19   20 am   BACKBONE|DICT|INTERRES
    41   19   89 1    
    42   20   21 2    
    43   20   22 1    
    44   22   23 1    
    45   22   24 1    
    46   22   90 1    
    47   23   91 1    
    48   23   92 1    
    49   23   93 1    
    50   24   25 am   BACKBONE|DICT|INTERRES
    51   24   94 1    
    52   25   26 2    
    53   25   27 1    
    54   27   28 1    
    55   27   29 1    
    56   27   95 1    
    57   28   96 1    
    58   28   97 1    
    59   28   98 1    
    60   29   30 am   BACKBONE|DICT|INTERRES
    61   29   99 1    
    62   30   31 2    
    63   30   32 1    
    64   32   33 1    
    65   32   34 1    
    66   32  100 1    
    67   33  101 1    
    68   33  102 1    
    69   33  103 1    
    70   34   35 am   BACKBONE|DICT|INTERRES
    71   34  104 1    
    72   35   36 2    
    73   37   38 2    
    74   37   39 am   BACKBONE|DICT|INTERRES
    75   39   40 1    
    76   39  105 1    
    77   40   41 1    
    78   40   42 1    
    79   40  106 1    
    80   41  107 1    
    81   41  108 1    
    82   41  109 1    
    83   42   43 2    
    84   42   44 am   BACKBONE|DICT|INTERRES
    85   44   45 1    
    86   44  110 1    
    87   45   46 1    
    88   45   47 1    
    89   45  111 1    
    90   46  112 1    
    91   46  113 1    
    92   46  114 1    
    93   47   48 2    
    94   47   49 am   BACKBONE|DICT|INTERRES
    95   49   50 1    
    96   49  115 1    
    97   50   51 1    
    98   50   52 1    
    99   50  116 1    
   100   51  117 1    
   101   51  118 1    
   102   51  119 1    
   103   52   53 2    
   104   52   54 am   BACKBONE|DICT|INTERRES
   105   54   55 1    
   106   54  120 1    
   107   55   56 1    
   108   55   57 1    
   109   55  121 1    
   110   56  122 1    
   111   56  123 1    
   112   56  124 1    
   113   57   58 2    
   114   57   59 am   BACKBONE|DICT|INTERRES
   115   59   60 1    
   116   59  125 1    
   117   60   61 1    
   118   60   62 1    
   119   60  126 1    
   120   61  127 1    
   121   61  128 1    
   122   61  129 1    
   123   62   63 2    
   124   62   64 am   BACKBONE|DICT|INTERRES
   125   64   65 1    
   126   64  130 1    
   127   65   66 1    
   128   65   69 1    
   129   65  131 1    
   130   66   67 am   BACKBONE|DICT|INTERRES
   131   66   68 2    
   132   67  132 1    
   133   67  133 1    
   134   69   70 1    
   135   69  134 1    
   136   69  135 1    
   137   70   71 1    
   138   71  136 1    
   139   71  137 1    
@<TRIPOS>SUBSTRUCTURE
     1 UNK         1 GROUP             0       ****    0 ROOT    
