@<TRIPOS>MOLECULE
3R136
137   139    1
SMALL
USER_CHARGES


@<TRIPOS>ATOM
      1 CA         33.0764   25.5460    0.3600 C.3       0 UNK        -0.1979 
      2 C          31.6787   24.9467    0.4119 C.2       0 UNK         0.4864 
      3 O          30.7082   25.6746    0.6339 O.2       0 UNK        -0.5359 
      4 N          31.5801   23.6265    0.2070 N.am      1 UNK        -0.4318 
      5 CA         30.3298   22.8626    0.1868 C.3       1 UNK         0.0824 
      6 C6         30.5621   21.3246    0.2363 C.3       12 UNK        -0.0944 
      7 S7         31.8571   20.7616    1.3956 S.3       12 UNK        -0.2672 
      8 C8         30.9270   20.5222    2.9409 C.3       12 UNK         0.0333 
      9 C9         30.5838   21.8510    3.5959 C.ar      12 UNK        -0.0807 
     10 C10        31.6042   22.6783    4.0746 C.ar      12 UNK        -0.0894 
     11 C11        31.3045   23.9101    4.6622 C.ar      12 UNK        -0.0804 
     12 C12        29.9694   24.3046    4.7871 C.ar      12 UNK        -0.0824 
     13 C13        28.9421   23.4908    4.3004 C.ar      12 UNK        -0.0762 
     14 C14        29.2532   22.2601    3.7153 C.ar      12 UNK        -0.0782 
     15 C15        27.4953   23.9480    4.3795 C.3       12 UNK         0.0230 
     16 S16        26.9292   24.6037    2.7801 S.3       12 UNK        -0.2608 
     17 C17        27.7831   26.2149    2.7294 C.3       12 UNK        -0.0989 
     18 CA         27.5803   26.9603    1.3867 C.3       5 UNK         0.0716 
     19 N          26.1564   27.0985    1.0543 N.am      5 UNK        -0.4135 
     20 C          25.6552   27.6104   -0.0761 C.2       4 UNK         0.5031 
     21 O          26.3340   28.0725   -0.9956 O.2       4 UNK        -0.5229 
     22 CA         24.1397   27.4832   -0.2599 C.3       4 UNK         0.0329 
     23 CB         23.5197   28.7370   -0.9026 C.3       4 UNK        -0.2001 
     24 N          23.9566   26.3376   -1.1402 N.am      4 UNK        -0.4303 
     25 C          23.1794   25.2756   -0.9009 C.2       3 UNK         0.5044 
     26 O          22.3467   25.2162    0.0044 O.2       3 UNK        -0.5152 
     27 CA         23.4084   24.0512   -1.8100 C.3       3 UNK         0.0319 
     28 CB         22.5056   24.1212   -3.0522 C.3       3 UNK        -0.2001 
     29 N          24.8109   23.9104   -2.2282 N.am      3 UNK        -0.4354 
     30 C          25.8273   23.6637   -1.3878 C.2       2 UNK         0.4964 
     31 O          25.6753   23.4068   -0.1914 O.2       2 UNK        -0.5047 
     32 CA         27.2454   23.7449   -1.9705 C.3       2 UNK         0.0288 
     33 CB         27.5337   25.1363   -2.5776 C.3       2 UNK        -0.2113 
     34 N          28.2024   23.4432   -0.9057 N.am      2 UNK        -0.4145 
     35 C          29.5099   23.2187   -1.0700 C.2       1 UNK         0.5006 
     36 O          30.0746   23.2404   -2.1677 O.2       1 UNK        -0.5103 
     37 C          28.3170   28.3152    1.4242 C.2       5 UNK         0.5055 
     38 O          27.6924   29.3510    1.6732 O.2       5 UNK        -0.5220 
     39 N          29.6426   28.2778    1.2319 N.am      6 UNK        -0.4450 
     40 CA         30.5484   29.4346    1.2246 C.3       6 UNK         0.0367 
     41 CB         31.8655   29.0236    0.5415 C.3       6 UNK        -0.1929 
     42 C          30.7911   30.0492    2.6212 C.2       6 UNK         0.5070 
     43 O          31.9427   30.2573    3.0113 O.2       6 UNK        -0.5237 
     44 N          29.7105   30.3321    3.3576 N.am      7 UNK        -0.4739 
     45 CA         29.7093   30.9733    4.6733 C.3       7 UNK         0.0276 
     46 CB         28.2697   31.0313    5.2062 C.3       7 UNK        -0.1927 
     47 C          30.3274   32.3784    4.6156 C.2       7 UNK         0.5013 
     48 O          29.9961   33.1491    3.7118 O.2       7 UNK        -0.5193 
     49 N          31.2446   32.6628    5.5488 N.am      8 UNK        -0.4253 
     50 CA         32.0793   33.8658    5.6859 C.3       8 UNK         0.0242 
     51 CB         31.2330   35.1479    5.8140 C.3       8 UNK        -0.2000 
     52 C          33.1601   34.0104    4.5976 C.2       8 UNK         0.4948 
     53 O          34.2506   34.4931    4.9049 O.2       8 UNK        -0.5275 
     54 N          32.8636   33.5775    3.3649 N.am      9 UNK        -0.4246 
     55 CA         33.7953   33.5173    2.2379 C.3       9 UNK         0.0261 
     56 CB         33.0180   33.2119    0.9473 C.3       9 UNK        -0.1959 
     57 C          34.9223   32.4924    2.4537 C.2       9 UNK         0.5033 
     58 O          36.0692   32.7805    2.1072 O.2       9 UNK        -0.5390 
     59 N          34.5827   31.3331    3.0311 N.am      10 UNK        -0.4215 
     60 CA         35.5238   30.2712    3.3858 C.3       10 UNK         0.0240 
     61 CB         35.6604   29.2741    2.2206 C.3       10 UNK        -0.1982 
     62 C          35.1033   29.5569    4.6764 C.2       10 UNK         0.4970 
     63 O          35.9440   29.3538    5.5531 O.2       10 UNK        -0.4916 
     64 N          33.8249   29.1759    4.7659 N.am      11 UNK        -0.4279 
     65 CA         33.2450   28.4336    5.8913 C.3       11 UNK         0.1003 
     66 C          32.8873   29.3659    7.0770 C.2       11 UNK         0.5709 
     67 N          33.0268   28.8894    8.3059 N.am      11 UNK        -0.7358 
     68 O          32.4438   30.4983    6.8957 O.2       11 UNK        -0.4999 
     69 C69        32.0154   27.6075    5.4344 C.3       12 UNK        -0.0954 
     70 S70        32.4788   26.3640    4.1819 S.3       12 UNK        -0.2268 
     71 C71        32.4249   24.8184    5.1440 C.3       12 UNK         0.0203 
     72 H72        33.1267   26.3145   -0.4106 H         1 UNK         0.0888 
     73 H73        33.3264   26.0018    1.3169 H         1 UNK         0.0888 
     74 H74        33.8338   24.7946    0.1376 H         1 UNK         0.0888 
     75 H75        32.4126   23.0848    0.0269 H         1 UNK         0.3017 
     76 H76        29.7596   23.1577    1.0699 H         1 UNK         0.0873 
     77 H77        29.6271   20.8117    0.4692 H         1 UNK         0.0745 
     78 H78        30.8638   20.9533   -0.7457 H         1 UNK         0.0745 
     79 H79        31.5364   19.9361    3.6301 H         1 UNK         0.0705 
     80 H80        30.0316   19.9306    2.7441 H         1 UNK         0.0705 
     81 H81        32.6344   22.3661    3.9701 H         1 UNK         0.1334 
     82 H82        29.7353   25.2611    5.2341 H         1 UNK         0.1417 
     83 H83        28.4578   21.6330    3.3355 H         1 UNK         0.1562 
     84 H84        27.3642   24.7034    5.1560 H         1 UNK         0.0748 
     85 H85        26.8612   23.1061    4.6614 H         1 UNK         0.0748 
     86 H86        28.8479   26.0424    2.8980 H         1 UNK         0.0940 
     87 H87        27.4299   26.8198    3.5673 H         1 UNK         0.0940 
     88 H88        28.0310   26.3624    0.5917 H         1 UNK         0.0703 
     89 H89        25.5195   26.7068    1.7321 H         1 UNK         0.3081 
     90 H90        23.6702   27.3136    0.7118 H         1 UNK         0.0719 
     91 H91        23.6889   29.6162   -0.2799 H         1 UNK         0.0809 
     92 H92        23.9441   28.9451   -1.8857 H         1 UNK         0.0809 
     93 H93        22.4421   28.6248   -1.0227 H         1 UNK         0.0809 
     94 H94        24.6212   26.2760   -1.8989 H         1 UNK         0.2990 
     95 H95        23.1366   23.1608   -1.2388 H         1 UNK         0.0690 
     96 H96        22.7414   24.9835   -3.6773 H         1 UNK         0.0788 
     97 H97        21.4561   24.2038   -2.7659 H         1 UNK         0.0788 
     98 H98        22.6026   23.2246   -3.6646 H         1 UNK         0.0788 
     99 H99        25.0127   24.0809   -3.2034 H         1 UNK         0.2993 
    100 H100       27.3296   22.9809   -2.7462 H         1 UNK         0.0949 
    101 H101       27.5623   25.9064   -1.8083 H         1 UNK         0.0767 
    102 H102       28.4935   25.1569   -3.0932 H         1 UNK         0.0767 
    103 H103       26.7829   25.4295   -3.3115 H         1 UNK         0.0767 
    104 H104       27.7752   23.3722    0.0116 H         1 UNK         0.3013 
    105 H105       30.0748   27.3687    1.0632 H         1 UNK         0.3121 
    106 H106       30.0896   30.2160    0.6154 H         1 UNK         0.0774 
    107 H107       32.5366   29.8755    0.4273 H         1 UNK         0.0815 
    108 H108       32.3931   28.2710    1.1271 H         1 UNK         0.0815 
    109 H109       31.6893   28.6154   -0.4537 H         1 UNK         0.0815 
    110 H110       28.8056   30.1475    2.9312 H         1 UNK         0.2987 
    111 H111       30.2994   30.3522    5.3473 H         1 UNK         0.0949 
    112 H112       27.8376   30.0341    5.2922 H         1 UNK         0.0806 
    113 H113       28.2383   31.4853    6.1976 H         1 UNK         0.0806 
    114 H114       27.6236   31.6220    4.5552 H         1 UNK         0.0806 
    115 H115       31.5129   31.9068    6.1782 H         1 UNK         0.3010 
    116 H116       32.6130   33.7336    6.6287 H         1 UNK         0.0829 
    117 H117       30.4972   35.0597    6.6132 H         1 UNK         0.0813 
    118 H118       31.8650   36.0055    6.0482 H         1 UNK         0.0813 
    119 H119       30.7018   35.3841    4.8918 H         1 UNK         0.0813 
    120 H120       31.9168   33.2475    3.2060 H         1 UNK         0.3038 
    121 H121       34.2577   34.5012    2.1335 H         1 UNK         0.0769 
    122 H122       32.2850   33.9900    0.7334 H         1 UNK         0.0811 
    123 H123       33.6904   33.1559    0.0900 H         1 UNK         0.0811 
    124 H124       32.4875   32.2617    1.0097 H         1 UNK         0.0811 
    125 H125       33.6007   31.1587    3.2319 H         1 UNK         0.3204 
    126 H126       36.5050   30.7117    3.5771 H         1 UNK         0.0748 
    127 H127       36.0455   29.7623    1.3252 H         1 UNK         0.0771 
    128 H128       36.3510   28.4686    2.4738 H         1 UNK         0.0771 
    129 H129       34.7034   28.8172    1.9666 H         1 UNK         0.0771 
    130 H130       33.1721   29.4205    4.0258 H         1 UNK         0.2980 
    131 H131       33.9981   27.7279    6.2487 H         1 UNK         0.0545 
    132 H132       33.3779   27.9589    8.4702 H         1 UNK         0.3459 
    133 H133       32.7835   29.4778    9.0870 H         1 UNK         0.3459 
    134 H134       31.5350   27.1178    6.2826 H         1 UNK         0.0616 
    135 H135       31.2552   28.2539    4.9972 H         1 UNK         0.0616 
    136 H136       32.3021   25.0156    6.2091 H         1 UNK         0.0634 
    137 H137       33.3914   24.3230    5.0408 H         1 UNK         0.0634 
@<TRIPOS>BOND
     1    1    2 1    
     2    1   72 1    
     3    1   73 1    
     4    1   74 1    
     5    2    3 2    
     6    2    4 am   BACKBONE|DICT|INTERRES
     7    4    5 1    
     8    4   75 1    
     9    5    6 1    
    10    5   35 1    
    11    5   76 1    
    12    6    7 1    
    13    6   77 1    
    14    6   78 1    
    15    7    8 1    
    16    8    9 1    
    17    8   79 1    
    18    8   80 1    
    19    9   10 ar   
    20    9   14 ar   
    21   10   11 ar   
    22   10   81 1    
    23   11   12 ar   
    24   11   71 1    
    25   12   13 ar   
    26   12   82 1    
    27   13   14 ar   
    28   13   15 1    
    29   14   83 1    
    30   15   16 1    
    31   15   84 1    
    32   15   85 1    
    33   16   17 1    
    34   17   18 1    
    35   17   86 1    
    36   17   87 1    
    37   18   19 1    
    38   18   37 1    
    39   18   88 1    
    40   19   20 am   BACKBONE|DICT|INTERRES
    41   19   89 1    
    42   20   21 2    
    43   20   22 1    
    44   22   23 1    
    45   22   24 1    
    46   22   90 1    
    47   23   91 1    
    48   23   92 1    
    49   23   93 1    
    50   24   25 am   BACKBONE|DICT|INTERRES
    51   24   94 1    
    52   25   26 2    
    53   25   27 1    
    54   27   28 1    
    55   27   29 1    
    56   27   95 1    
    57   28   96 1    
    58   28   97 1    
    59   28   98 1    
    60   29   30 am   BACKBONE|DICT|INTERRES
    61   29   99 1    
    62   30   31 2    
    63   30   32 1    
    64   32   33 1    
    65   32   34 1    
    66   32  100 1    
    67   33  101 1    
    68   33  102 1    
    69   33  103 1    
    70   34   35 am   BACKBONE|DICT|INTERRES
    71   34  104 1    
    72   35   36 2    
    73   37   38 2    
    74   37   39 am   BACKBONE|DICT|INTERRES
    75   39   40 1    
    76   39  105 1    
    77   40   41 1    
    78   40   42 1    
    79   40  106 1    
    80   41  107 1    
    81   41  108 1    
    82   41  109 1    
    83   42   43 2    
    84   42   44 am   BACKBONE|DICT|INTERRES
    85   44   45 1    
    86   44  110 1    
    87   45   46 1    
    88   45   47 1    
    89   45  111 1    
    90   46  112 1    
    91   46  113 1    
    92   46  114 1    
    93   47   48 2    
    94   47   49 am   BACKBONE|DICT|INTERRES
    95   49   50 1    
    96   49  115 1    
    97   50   51 1    
    98   50   52 1    
    99   50  116 1    
   100   51  117 1    
   101   51  118 1    
   102   51  119 1    
   103   52   53 2    
   104   52   54 am   BACKBONE|DICT|INTERRES
   105   54   55 1    
   106   54  120 1    
   107   55   56 1    
   108   55   57 1    
   109   55  121 1    
   110   56  122 1    
   111   56  123 1    
   112   56  124 1    
   113   57   58 2    
   114   57   59 am   BACKBONE|DICT|INTERRES
   115   59   60 1    
   116   59  125 1    
   117   60   61 1    
   118   60   62 1    
   119   60  126 1    
   120   61  127 1    
   121   61  128 1    
   122   61  129 1    
   123   62   63 2    
   124   62   64 am   BACKBONE|DICT|INTERRES
   125   64   65 1    
   126   64  130 1    
   127   65   66 1    
   128   65   69 1    
   129   65  131 1    
   130   66   67 am   BACKBONE|DICT|INTERRES
   131   66   68 2    
   132   67  132 1    
   133   67  133 1    
   134   69   70 1    
   135   69  134 1    
   136   69  135 1    
   137   70   71 1    
   138   71  136 1    
   139   71  137 1    
@<TRIPOS>SUBSTRUCTURE
     1 UNK         1 GROUP             0       ****    0 ROOT    
