@<TRIPOS>MOLECULE
3R136
137   139    1
SMALL
USER_CHARGES


@<TRIPOS>ATOM
      1 CA         28.4989   20.6491    2.1548 C.3       0 UNK        -0.1979 
      2 C          28.7830   20.9821    0.6976 C.2       0 UNK         0.4864 
      3 O          29.2655   20.1212   -0.0396 O.2       0 UNK        -0.5359 
      4 N          28.4791   22.2175    0.2849 N.am      1 UNK        -0.4318 
      5 CA         28.6104   22.7205   -1.0857 C.3       1 UNK         0.0824 
      6 C6         29.7682   23.7444   -1.2182 C.3       12 UNK        -0.0944 
      7 S7         31.3873   22.9070   -1.1687 S.3       12 UNK        -0.2672 
      8 C8         32.4825   24.2358   -0.5664 C.3       12 UNK         0.0333 
      9 C9         32.3425   24.6060    0.9118 C.ar      12 UNK        -0.0807 
     10 C10        32.9036   25.8126    1.3396 C.ar      12 UNK        -0.0894 
     11 C11        32.8173   26.2136    2.6751 C.ar      12 UNK        -0.0804 
     12 C12        32.1865   25.3792    3.5996 C.ar      12 UNK        -0.0824 
     13 C13        31.6116   24.1723    3.1926 C.ar      12 UNK        -0.0762 
     14 C14        31.6980   23.7873    1.8507 C.ar      12 UNK        -0.0782 
     15 C15        30.8906   23.2884    4.2012 C.3       12 UNK         0.0230 
     16 S16        29.1180   23.7007    4.3227 S.3       12 UNK        -0.2608 
     17 C17        29.1598   25.2873    5.2264 C.3       12 UNK        -0.0989 
     18 CA         28.9957   26.4968    4.2735 C.3       5 UNK         0.0716 
     19 N          27.6800   26.5070    3.6207 N.am      5 UNK        -0.4135 
     20 C          27.3765   27.2510    2.5529 C.2       4 UNK         0.5031 
     21 O          28.1369   28.0944    2.0665 O.2       4 UNK        -0.5229 
     22 CA         25.9827   27.0663    1.9530 C.3       4 UNK         0.0329 
     23 CB         24.9462   27.9421    2.6822 C.3       4 UNK        -0.2001 
     24 N          26.0839   27.4319    0.5464 N.am      4 UNK        -0.4303 
     25 C          25.2249   27.1125   -0.4241 C.2       3 UNK         0.5044 
     26 O          24.1400   26.5654   -0.2220 O.2       3 UNK        -0.5152 
     27 CA         25.6633   27.4321   -1.8671 C.3       3 UNK         0.0319 
     28 CB         26.8006   28.4729   -1.9629 C.3       3 UNK        -0.2001 
     29 N          26.0915   26.1943   -2.5196 N.am      3 UNK        -0.4354 
     30 C          25.2658   25.2944   -3.0712 C.2       2 UNK         0.4964 
     31 O          24.0618   25.4857   -3.2490 O.2       2 UNK        -0.5047 
     32 CA         25.8729   23.9487   -3.5136 C.3       2 UNK         0.0288 
     33 CB         26.1120   23.9458   -5.0332 C.3       2 UNK        -0.2113 
     34 N          27.1145   23.5483   -2.8364 N.am      2 UNK        -0.4145 
     35 C          27.2590   23.3180   -1.5220 C.2       1 UNK         0.5006 
     36 O          26.3816   23.5415   -0.6832 O.2       1 UNK        -0.5103 
     37 C          29.3748   27.8219    4.9738 C.2       5 UNK         0.5055 
     38 O          30.5477   28.0030    5.2970 O.2       5 UNK        -0.5220 
     39 N          28.4032   28.7202    5.1845 N.am      6 UNK        -0.4450 
     40 CA         28.6198   30.0843    5.6740 C.3       6 UNK         0.0367 
     41 CB         27.5658   30.3899    6.7527 C.3       6 UNK        -0.1929 
     42 C          28.5534   31.1362    4.5481 C.2       6 UNK         0.5070 
     43 O          28.8445   32.3029    4.8141 O.2       6 UNK        -0.5237 
     44 N          28.1442   30.7378    3.3339 N.am      7 UNK        -0.4739 
     45 CA         27.9495   31.6300    2.1864 C.3       7 UNK         0.0276 
     46 CB         26.5941   31.3262    1.5269 C.3       7 UNK        -0.1927 
     47 C          29.0756   31.4966    1.1530 C.2       7 UNK         0.5013 
     48 O          29.4352   32.4978    0.5329 O.2       7 UNK        -0.5193 
     49 N          29.6039   30.2756    0.9764 N.am      8 UNK        -0.4253 
     50 CA         30.6815   29.9518    0.0359 C.3       8 UNK         0.0242 
     51 CB         30.8846   28.4280    0.0095 C.3       8 UNK        -0.2000 
     52 C          32.0019   30.6793    0.3491 C.2       8 UNK         0.4948 
     53 O          32.6708   31.1463   -0.5734 O.2       8 UNK        -0.5275 
     54 N          32.3212   30.7858    1.6425 N.am      9 UNK        -0.4246 
     55 CA         33.4200   31.5370    2.2425 C.3       9 UNK         0.0261 
     56 CB         34.7970   30.9636    1.8403 C.3       9 UNK        -0.1959 
     57 C          33.2173   31.4773    3.7624 C.2       9 UNK         0.5033 
     58 O          32.3387   30.7491    4.2346 O.2       9 UNK        -0.5390 
     59 N          34.0477   32.2077    4.5147 N.am      10 UNK        -0.4215 
     60 CA         34.0660   32.2043    5.9813 C.3       10 UNK         0.0240 
     61 CB         34.6714   33.5324    6.4754 C.3       10 UNK        -0.1982 
     62 C          34.8000   30.9675    6.5435 C.2       10 UNK         0.4970 
     63 O          35.7798   31.1139    7.2773 O.2       10 UNK        -0.4916 
     64 N          34.3319   29.7722    6.1665 N.am      11 UNK        -0.4279 
     65 CA         34.8502   28.4771    6.6295 C.3       11 UNK         0.1003 
     66 C          34.5368   28.2132    8.1283 C.2       11 UNK         0.5709 
     67 N          35.3729   27.4390    8.8070 N.am      11 UNK        -0.7358 
     68 O          33.5324   28.6704    8.6718 O.2       11 UNK        -0.4999 
     69 C69        34.3426   27.3088    5.7451 C.3       12 UNK        -0.0954 
     70 S70        34.9249   27.4379    4.0189 S.3       12 UNK        -0.2268 
     71 C71        33.3618   27.5701    3.0978 C.3       12 UNK         0.0203 
     72 H72        27.9206   21.4319    2.6451 H         1 UNK         0.0888 
     73 H73        27.9336   19.7203    2.2258 H         1 UNK         0.0888 
     74 H74        29.4335   20.5227    2.7001 H         1 UNK         0.0888 
     75 H75        28.0083   22.8523    0.9155 H         1 UNK         0.3017 
     76 H76        28.7989   21.8872   -1.7667 H         1 UNK         0.0873 
     77 H77        29.7196   24.2874   -2.1637 H         1 UNK         0.0745 
     78 H78        29.7119   24.4965   -0.4286 H         1 UNK         0.0745 
     79 H79        33.5139   23.9268   -0.7408 H         1 UNK         0.0705 
     80 H80        32.3179   25.1204   -1.1839 H         1 UNK         0.0705 
     81 H81        33.3988   26.4533    0.6224 H         1 UNK         0.1334 
     82 H82        32.1138   25.6861    4.6323 H         1 UNK         0.1417 
     83 H83        31.2572   22.8487    1.5470 H         1 UNK         0.1562 
     84 H84        31.3584   23.3679    5.1837 H         1 UNK         0.0748 
     85 H85        30.9865   22.2421    3.9080 H         1 UNK         0.0748 
     86 H86        30.0920   25.3474    5.7909 H         1 UNK         0.0940 
     87 H87        28.3655   25.2822    5.9750 H         1 UNK         0.0940 
     88 H88        29.7230   26.3899    3.4676 H         1 UNK         0.0703 
     89 H89        27.0057   25.8400    3.9680 H         1 UNK         0.3081 
     90 H90        25.7003   26.0137    2.0250 H         1 UNK         0.0719 
     91 H91        24.8631   27.6589    3.7320 H         1 UNK         0.0809 
     92 H92        25.2097   28.9987    2.6499 H         1 UNK         0.0809 
     93 H93        23.9539   27.8345    2.2443 H         1 UNK         0.0809 
     94 H94        26.9641   27.8723    0.3091 H         1 UNK         0.2990 
     95 H95        24.7941   27.8396   -2.3879 H         1 UNK         0.0690 
     96 H96        26.5335   29.3982   -1.4501 H         1 UNK         0.0788 
     97 H97        26.9989   28.7341   -3.0027 H         1 UNK         0.0788 
     98 H98        27.7363   28.1112   -1.5351 H         1 UNK         0.0788 
     99 H99        27.0620   25.9395   -2.4155 H         1 UNK         0.2993 
    100 H100       25.1265   23.1840   -3.2872 H         1 UNK         0.0949 
    101 H101       26.4223   22.9619   -5.3859 H         1 UNK         0.0767 
    102 H102       25.2010   24.2069   -5.5740 H         1 UNK         0.0767 
    103 H103       26.8793   24.6655   -5.3217 H         1 UNK         0.0767 
    104 H104       27.8952   23.3421   -3.4436 H         1 UNK         0.3013 
    105 H105       27.4587   28.4750    4.9274 H         1 UNK         0.3121 
    106 H106       29.6080   30.1712    6.1315 H         1 UNK         0.0774 
    107 H107       27.7125   31.3862    7.1722 H         1 UNK         0.0815 
    108 H108       26.5524   30.3514    6.3514 H         1 UNK         0.0815 
    109 H109       27.6281   29.6814    7.5788 H         1 UNK         0.0815 
    110 H110       28.0036   29.7496    3.1616 H         1 UNK         0.2987 
    111 H111       27.9316   32.6711    2.5170 H         1 UNK         0.0949 
    112 H112       26.5538   30.3122    1.1292 H         1 UNK         0.0806 
    113 H113       25.7734   31.4459    2.2342 H         1 UNK         0.0806 
    114 H114       26.4051   32.0070    0.6957 H         1 UNK         0.0806 
    115 H115       29.1993   29.4947    1.4869 H         1 UNK         0.3010 
    116 H116       30.3604   30.2710   -0.9579 H         1 UNK         0.0829 
    117 H117       31.7106   28.1506   -0.6468 H         1 UNK         0.0813 
    118 H118       31.1047   28.0374    1.0031 H         1 UNK         0.0813 
    119 H119       29.9948   27.9150   -0.3550 H         1 UNK         0.0813 
    120 H120       31.7002   30.3889    2.3399 H         1 UNK         0.3038 
    121 H121       33.3414   32.5768    1.9196 H         1 UNK         0.0769 
    122 H122       34.9542   29.9609    2.2345 H         1 UNK         0.0811 
    123 H123       35.6065   31.5856    2.2229 H         1 UNK         0.0811 
    124 H124       34.9235   30.9198    0.7592 H         1 UNK         0.0811 
    125 H125       34.7632   32.7555    4.0583 H         1 UNK         0.3204 
    126 H126       33.0377   32.1571    6.3469 H         1 UNK         0.0748 
    127 H127       34.6639   33.5840    7.5651 H         1 UNK         0.0771 
    128 H128       35.7054   33.6528    6.1496 H         1 UNK         0.0771 
    129 H129       34.1024   34.3876    6.1101 H         1 UNK         0.0771 
    130 H130       33.5142   29.7477    5.5666 H         1 UNK         0.2980 
    131 H131       35.9372   28.5181    6.5334 H         1 UNK         0.0545 
    132 H132       35.1815   27.2446    9.7774 H         1 UNK         0.3459 
    133 H133       36.1942   27.0493    8.3709 H         1 UNK         0.3459 
    134 H134       33.2534   27.2670    5.7776 H         1 UNK         0.0616 
    135 H135       34.6957   26.3509    6.1311 H         1 UNK         0.0616 
    136 H136       32.6185   28.1072    3.6860 H         1 UNK         0.0634 
    137 H137       33.5351   28.1819    2.2131 H         1 UNK         0.0634 
@<TRIPOS>BOND
     1    1    2 1    
     2    1   72 1    
     3    1   73 1    
     4    1   74 1    
     5    2    3 2    
     6    2    4 am   BACKBONE|DICT|INTERRES
     7    4    5 1    
     8    4   75 1    
     9    5    6 1    
    10    5   35 1    
    11    5   76 1    
    12    6    7 1    
    13    6   77 1    
    14    6   78 1    
    15    7    8 1    
    16    8    9 1    
    17    8   79 1    
    18    8   80 1    
    19    9   10 ar   
    20    9   14 ar   
    21   10   11 ar   
    22   10   81 1    
    23   11   12 ar   
    24   11   71 1    
    25   12   13 ar   
    26   12   82 1    
    27   13   14 ar   
    28   13   15 1    
    29   14   83 1    
    30   15   16 1    
    31   15   84 1    
    32   15   85 1    
    33   16   17 1    
    34   17   18 1    
    35   17   86 1    
    36   17   87 1    
    37   18   19 1    
    38   18   37 1    
    39   18   88 1    
    40   19   20 am   BACKBONE|DICT|INTERRES
    41   19   89 1    
    42   20   21 2    
    43   20   22 1    
    44   22   23 1    
    45   22   24 1    
    46   22   90 1    
    47   23   91 1    
    48   23   92 1    
    49   23   93 1    
    50   24   25 am   BACKBONE|DICT|INTERRES
    51   24   94 1    
    52   25   26 2    
    53   25   27 1    
    54   27   28 1    
    55   27   29 1    
    56   27   95 1    
    57   28   96 1    
    58   28   97 1    
    59   28   98 1    
    60   29   30 am   BACKBONE|DICT|INTERRES
    61   29   99 1    
    62   30   31 2    
    63   30   32 1    
    64   32   33 1    
    65   32   34 1    
    66   32  100 1    
    67   33  101 1    
    68   33  102 1    
    69   33  103 1    
    70   34   35 am   BACKBONE|DICT|INTERRES
    71   34  104 1    
    72   35   36 2    
    73   37   38 2    
    74   37   39 am   BACKBONE|DICT|INTERRES
    75   39   40 1    
    76   39  105 1    
    77   40   41 1    
    78   40   42 1    
    79   40  106 1    
    80   41  107 1    
    81   41  108 1    
    82   41  109 1    
    83   42   43 2    
    84   42   44 am   BACKBONE|DICT|INTERRES
    85   44   45 1    
    86   44  110 1    
    87   45   46 1    
    88   45   47 1    
    89   45  111 1    
    90   46  112 1    
    91   46  113 1    
    92   46  114 1    
    93   47   48 2    
    94   47   49 am   BACKBONE|DICT|INTERRES
    95   49   50 1    
    96   49  115 1    
    97   50   51 1    
    98   50   52 1    
    99   50  116 1    
   100   51  117 1    
   101   51  118 1    
   102   51  119 1    
   103   52   53 2    
   104   52   54 am   BACKBONE|DICT|INTERRES
   105   54   55 1    
   106   54  120 1    
   107   55   56 1    
   108   55   57 1    
   109   55  121 1    
   110   56  122 1    
   111   56  123 1    
   112   56  124 1    
   113   57   58 2    
   114   57   59 am   BACKBONE|DICT|INTERRES
   115   59   60 1    
   116   59  125 1    
   117   60   61 1    
   118   60   62 1    
   119   60  126 1    
   120   61  127 1    
   121   61  128 1    
   122   61  129 1    
   123   62   63 2    
   124   62   64 am   BACKBONE|DICT|INTERRES
   125   64   65 1    
   126   64  130 1    
   127   65   66 1    
   128   65   69 1    
   129   65  131 1    
   130   66   67 am   BACKBONE|DICT|INTERRES
   131   66   68 2    
   132   67  132 1    
   133   67  133 1    
   134   69   70 1    
   135   69  134 1    
   136   69  135 1    
   137   70   71 1    
   138   71  136 1    
   139   71  137 1    
@<TRIPOS>SUBSTRUCTURE
     1 UNK         1 GROUP             0       ****    0 ROOT    
