@<TRIPOS>MOLECULE
3R136
137   139    1
SMALL
USER_CHARGES


@<TRIPOS>ATOM
      1 CA         30.0685   19.8233   -1.9922 C.3       0 UNK        -0.1979 
      2 C          30.0982   21.3421   -2.0815 C.2       0 UNK         0.4864 
      3 O          30.4497   21.8870   -3.1294 O.2       0 UNK        -0.5359 
      4 N          29.7407   22.0273   -0.9885 N.am      1 UNK        -0.4318 
      5 CA         29.6281   23.4862   -0.9110 C.3       1 UNK         0.0824 
      6 C6         29.7271   24.0017    0.5490 C.3       12 UNK        -0.0944 
      7 S7         28.6273   23.1602    1.7388 S.3       12 UNK        -0.2672 
      8 C8         29.8158   22.2194    2.7538 C.3       12 UNK         0.0333 
      9 C9         30.3758   23.0462    3.9047 C.ar      12 UNK        -0.0807 
     10 C10        31.7298   23.4044    3.9457 C.ar      12 UNK        -0.0894 
     11 C11        32.2423   24.1198    5.0356 C.ar      12 UNK        -0.0804 
     12 C12        31.3843   24.4930    6.0727 C.ar      12 UNK        -0.0824 
     13 C13        30.0249   24.1764    6.0242 C.ar      12 UNK        -0.0762 
     14 C14        29.5321   23.4270    4.9533 C.ar      12 UNK        -0.0782 
     15 C15        29.0877   24.6828    7.1126 C.3       12 UNK         0.0230 
     16 S16        27.9869   26.0146    6.5174 S.3       12 UNK        -0.2608 
     17 C17        29.1317   27.1137    5.6090 C.3       12 UNK        -0.0989 
     18 CA         28.9994   26.9083    4.0772 C.3       5 UNK         0.0716 
     19 N          27.6851   27.3743    3.6120 N.am      5 UNK        -0.4135 
     20 C          27.1852   27.3553    2.3694 C.2       4 UNK         0.5031 
     21 O          27.8149   27.0303    1.3591 O.2       4 UNK        -0.5229 
     22 CA         25.7252   27.8099    2.2279 C.3       4 UNK         0.0329 
     23 CB         25.6456   29.3323    2.0381 C.3       4 UNK        -0.2001 
     24 N          25.1179   27.1528    1.0741 N.am      4 UNK        -0.4303 
     25 C          24.6585   25.8973    1.0637 C.2       3 UNK         0.5044 
     26 O          24.5099   25.2127    2.0768 O.2       3 UNK        -0.5152 
     27 CA         24.3298   25.2912   -0.3121 C.3       3 UNK         0.0319 
     28 CB         23.0753   25.9358   -0.9351 C.3       3 UNK        -0.2001 
     29 N          25.4678   25.2938   -1.2436 N.am      3 UNK        -0.4354 
     30 C          26.1025   26.3314   -1.8078 C.2       2 UNK         0.4964 
     31 O          25.7856   27.5095   -1.6277 O.2       2 UNK        -0.5047 
     32 CA         27.3009   25.9878   -2.7176 C.3       2 UNK         0.0288 
     33 CB         27.9032   27.2376   -3.3893 C.3       2 UNK        -0.2113 
     34 N          28.3731   25.2834   -2.0073 N.am      2 UNK        -0.4145 
     35 C          28.3563   23.9985   -1.6243 C.2       1 UNK         0.5006 
     36 O          27.3912   23.2481   -1.8023 O.2       1 UNK        -0.5103 
     37 C          30.1767   27.5321    3.2988 C.2       5 UNK         0.5055 
     38 O          30.7041   28.5679    3.7044 O.2       5 UNK        -0.5220 
     39 N          30.5019   26.9153    2.1540 N.am      6 UNK        -0.4450 
     40 CA         31.3798   27.3909    1.0783 C.3       6 UNK         0.0367 
     41 CB         32.8532   27.2049    1.4587 C.3       6 UNK        -0.1929 
     42 C          31.0257   28.8215    0.6307 C.2       6 UNK         0.5070 
     43 O          31.8745   29.7150    0.6533 O.2       6 UNK        -0.5237 
     44 N          29.7378   29.0059    0.2975 N.am      7 UNK        -0.4739 
     45 CA         29.0842   30.2757   -0.0500 C.3       7 UNK         0.0276 
     46 CB         29.6705   30.8671   -1.3497 C.3       7 UNK        -0.1927 
     47 C          29.0778   31.2855    1.1172 C.2       7 UNK         0.5013 
     48 O          29.0789   32.4949    0.8839 O.2       7 UNK        -0.5193 
     49 N          29.1065   30.7655    2.3539 N.am      8 UNK        -0.4253 
     50 CA         29.1911   31.4363    3.6587 C.3       8 UNK         0.0242 
     51 CB         28.0134   32.4041    3.8859 C.3       8 UNK        -0.2000 
     52 C          30.5387   32.1299    3.9263 C.2       8 UNK         0.4948 
     53 O          31.0471   32.0438    5.0440 O.2       8 UNK        -0.5275 
     54 N          31.0838   32.8155    2.9155 N.am      9 UNK        -0.4246 
     55 CA         32.2775   33.6543    3.0014 C.3       9 UNK         0.0261 
     56 CB         32.4488   34.4231    1.6809 C.3       9 UNK        -0.1959 
     57 C          33.5708   32.9024    3.3555 C.2       9 UNK         0.5033 
     58 O          34.3787   33.4443    4.1119 O.2       9 UNK        -0.5390 
     59 N          33.7712   31.7042    2.7872 N.am      10 UNK        -0.4215 
     60 CA         35.0285   30.9646    2.9254 C.3       10 UNK         0.0240 
     61 CB         35.2705   30.0838    1.6919 C.3       10 UNK        -0.1982 
     62 C          35.1325   30.1693    4.2365 C.2       10 UNK         0.4970 
     63 O          36.1548   30.2905    4.9138 O.2       10 UNK        -0.4916 
     64 N          34.1049   29.3778    4.5788 N.am      11 UNK        -0.4279 
     65 CA         34.0859   28.5873    5.8258 C.3       11 UNK         0.1003 
     66 C          33.5570   29.3743    7.0587 C.2       11 UNK         0.5709 
     67 N          32.8877   30.5100    6.9022 N.am      11 UNK        -0.7358 
     68 O          33.7746   28.9496    8.1911 O.2       11 UNK        -0.4999 
     69 C69        33.3455   27.2325    5.6745 C.3       12 UNK        -0.0954 
     70 S70        34.1168   26.1132    4.4581 S.3       12 UNK        -0.2268 
     71 C71        33.7261   24.4612    5.1227 C.3       12 UNK         0.0203 
     72 H72        31.0584   19.4157   -2.1952 H         1 UNK         0.0888 
     73 H73        29.7558   19.4791   -1.0064 H         1 UNK         0.0888 
     74 H74        29.3747   19.4183   -2.7283 H         1 UNK         0.0888 
     75 H75        29.4131   21.5322   -0.1717 H         1 UNK         0.3017 
     76 H76        30.4772   23.9049   -1.4565 H         1 UNK         0.0873 
     77 H77        29.4875   25.0622    0.5798 H         1 UNK         0.0745 
     78 H78        30.7589   23.9218    0.8951 H         1 UNK         0.0745 
     79 H79        29.3036   21.3494    3.1672 H         1 UNK         0.0705 
     80 H80        30.6155   21.8264    2.1241 H         1 UNK         0.0705 
     81 H81        32.3903   23.1088    3.1419 H         1 UNK         0.1334 
     82 H82        31.7719   25.0488    6.9147 H         1 UNK         0.1417 
     83 H83        28.4817   23.1697    4.9180 H         1 UNK         0.1562 
     84 H84        29.6547   25.0526    7.9684 H         1 UNK         0.0748 
     85 H85        28.4795   23.8568    7.4838 H         1 UNK         0.0748 
     86 H86        30.1488   26.9348    5.9544 H         1 UNK         0.0940 
     87 H87        28.9157   28.1497    5.8774 H         1 UNK         0.0940 
     88 H88        29.0324   25.8381    3.8732 H         1 UNK         0.0703 
     89 H89        27.0683   27.6712    4.3541 H         1 UNK         0.3081 
     90 H90        25.1743   27.5355    3.1302 H         1 UNK         0.0719 
     91 H91        26.1084   29.8576    2.8738 H         1 UNK         0.0809 
     92 H92        26.1499   29.6534    1.1271 H         1 UNK         0.0809 
     93 H93        24.6101   29.6679    1.9795 H         1 UNK         0.0809 
     94 H94        25.2949   27.5731    0.1648 H         1 UNK         0.2990 
     95 H95        24.0992   24.2384   -0.1410 H         1 UNK         0.0690 
     96 H96        22.8035   25.4468   -1.8705 H         1 UNK         0.0788 
     97 H97        23.2144   26.9973   -1.1412 H         1 UNK         0.0788 
     98 H98        22.2206   25.8474   -0.2632 H         1 UNK         0.0788 
     99 H99        25.8780   24.3799   -1.4210 H         1 UNK         0.2993 
    100 H100       26.9235   25.3350   -3.5080 H         1 UNK         0.0949 
    101 H101       28.3092   27.9348   -2.6548 H         1 UNK         0.0767 
    102 H102       28.7042   26.9717   -4.0795 H         1 UNK         0.0767 
    103 H103       27.1483   27.7743   -3.9656 H         1 UNK         0.0767 
    104 H104       29.1915   25.8357   -1.8001 H         1 UNK         0.3013 
    105 H105       29.9298   26.1173    1.9145 H         1 UNK         0.3121 
    106 H106       31.1922   26.7544    0.2130 H         1 UNK         0.0774 
    107 H107       33.1115   27.8016    2.3316 H         1 UNK         0.0815 
    108 H108       33.0692   26.1613    1.6856 H         1 UNK         0.0815 
    109 H109       33.5098   27.4971    0.6389 H         1 UNK         0.0815 
    110 H110       29.1096   28.2124    0.4005 H         1 UNK         0.2987 
    111 H111       28.0392   30.0343   -0.2480 H         1 UNK         0.0949 
    112 H112       29.6682   30.1343   -2.1563 H         1 UNK         0.0806 
    113 H113       29.0838   31.7216   -1.6890 H         1 UNK         0.0806 
    114 H114       30.6953   31.2135   -1.2129 H         1 UNK         0.0806 
    115 H115       29.2311   29.7639    2.4075 H         1 UNK         0.3010 
    116 H116       29.1036   30.6412    4.4009 H         1 UNK         0.0829 
    117 H117       28.0374   33.2493    3.1978 H         1 UNK         0.0813 
    118 H118       28.0396   32.8127    4.8969 H         1 UNK         0.0813 
    119 H119       27.0543   31.9018    3.7661 H         1 UNK         0.0813 
    120 H120       30.5616   32.8374    2.0436 H         1 UNK         0.3038 
    121 H121       32.1008   34.3833    3.7950 H         1 UNK         0.0769 
    122 H122       31.5836   35.0531    1.4734 H         1 UNK         0.0811 
    123 H123       32.5818   33.7474    0.8348 H         1 UNK         0.0811 
    124 H124       33.3220   35.0762    1.7185 H         1 UNK         0.0811 
    125 H125       33.0584   31.3127    2.1836 H         1 UNK         0.3204 
    126 H126       35.8476   31.6877    2.9413 H         1 UNK         0.0748 
    127 H127       34.4173   29.4483    1.4784 H         1 UNK         0.0771 
    128 H128       35.4526   30.6929    0.8063 H         1 UNK         0.0771 
    129 H129       36.1403   29.4392    1.8269 H         1 UNK         0.0771 
    130 H130       33.2768   29.3341    4.0020 H         1 UNK         0.2980 
    131 H131       35.1167   28.3317    6.0793 H         1 UNK         0.0545 
    132 H132       32.5650   30.9989    7.7211 H         1 UNK         0.3459 
    133 H133       32.6383   30.8634    5.9884 H         1 UNK         0.3459 
    134 H134       32.3089   27.3944    5.3890 H         1 UNK         0.0616 
    135 H135       33.3264   26.7159    6.6350 H         1 UNK         0.0616 
    136 H136       34.0686   24.3965    6.1565 H         1 UNK         0.0634 
    137 H137       34.3055   23.7217    4.5682 H         1 UNK         0.0634 
@<TRIPOS>BOND
     1    1    2 1    
     2    1   72 1    
     3    1   73 1    
     4    1   74 1    
     5    2    3 2    
     6    2    4 am   BACKBONE|DICT|INTERRES
     7    4    5 1    
     8    4   75 1    
     9    5    6 1    
    10    5   35 1    
    11    5   76 1    
    12    6    7 1    
    13    6   77 1    
    14    6   78 1    
    15    7    8 1    
    16    8    9 1    
    17    8   79 1    
    18    8   80 1    
    19    9   10 ar   
    20    9   14 ar   
    21   10   11 ar   
    22   10   81 1    
    23   11   12 ar   
    24   11   71 1    
    25   12   13 ar   
    26   12   82 1    
    27   13   14 ar   
    28   13   15 1    
    29   14   83 1    
    30   15   16 1    
    31   15   84 1    
    32   15   85 1    
    33   16   17 1    
    34   17   18 1    
    35   17   86 1    
    36   17   87 1    
    37   18   19 1    
    38   18   37 1    
    39   18   88 1    
    40   19   20 am   BACKBONE|DICT|INTERRES
    41   19   89 1    
    42   20   21 2    
    43   20   22 1    
    44   22   23 1    
    45   22   24 1    
    46   22   90 1    
    47   23   91 1    
    48   23   92 1    
    49   23   93 1    
    50   24   25 am   BACKBONE|DICT|INTERRES
    51   24   94 1    
    52   25   26 2    
    53   25   27 1    
    54   27   28 1    
    55   27   29 1    
    56   27   95 1    
    57   28   96 1    
    58   28   97 1    
    59   28   98 1    
    60   29   30 am   BACKBONE|DICT|INTERRES
    61   29   99 1    
    62   30   31 2    
    63   30   32 1    
    64   32   33 1    
    65   32   34 1    
    66   32  100 1    
    67   33  101 1    
    68   33  102 1    
    69   33  103 1    
    70   34   35 am   BACKBONE|DICT|INTERRES
    71   34  104 1    
    72   35   36 2    
    73   37   38 2    
    74   37   39 am   BACKBONE|DICT|INTERRES
    75   39   40 1    
    76   39  105 1    
    77   40   41 1    
    78   40   42 1    
    79   40  106 1    
    80   41  107 1    
    81   41  108 1    
    82   41  109 1    
    83   42   43 2    
    84   42   44 am   BACKBONE|DICT|INTERRES
    85   44   45 1    
    86   44  110 1    
    87   45   46 1    
    88   45   47 1    
    89   45  111 1    
    90   46  112 1    
    91   46  113 1    
    92   46  114 1    
    93   47   48 2    
    94   47   49 am   BACKBONE|DICT|INTERRES
    95   49   50 1    
    96   49  115 1    
    97   50   51 1    
    98   50   52 1    
    99   50  116 1    
   100   51  117 1    
   101   51  118 1    
   102   51  119 1    
   103   52   53 2    
   104   52   54 am   BACKBONE|DICT|INTERRES
   105   54   55 1    
   106   54  120 1    
   107   55   56 1    
   108   55   57 1    
   109   55  121 1    
   110   56  122 1    
   111   56  123 1    
   112   56  124 1    
   113   57   58 2    
   114   57   59 am   BACKBONE|DICT|INTERRES
   115   59   60 1    
   116   59  125 1    
   117   60   61 1    
   118   60   62 1    
   119   60  126 1    
   120   61  127 1    
   121   61  128 1    
   122   61  129 1    
   123   62   63 2    
   124   62   64 am   BACKBONE|DICT|INTERRES
   125   64   65 1    
   126   64  130 1    
   127   65   66 1    
   128   65   69 1    
   129   65  131 1    
   130   66   67 am   BACKBONE|DICT|INTERRES
   131   66   68 2    
   132   67  132 1    
   133   67  133 1    
   134   69   70 1    
   135   69  134 1    
   136   69  135 1    
   137   70   71 1    
   138   71  136 1    
   139   71  137 1    
@<TRIPOS>SUBSTRUCTURE
     1 UNK         1 GROUP             0       ****    0 ROOT    
