@<TRIPOS>MOLECULE
3R136
137   139    1
SMALL
USER_CHARGES


@<TRIPOS>ATOM
      1 CA         30.0036   19.8561   -2.3356 C.3       0 UNK        -0.1979 
      2 C          29.7912   21.3269   -2.0111 C.2       0 UNK         0.4864 
      3 O          29.5611   22.1289   -2.9175 O.2       0 UNK        -0.5359 
      4 N          29.8442   21.6902   -0.7233 N.am      1 UNK        -0.4318 
      5 CA         29.7213   23.0584   -0.1963 C.3       1 UNK         0.0824 
      6 C6         30.3631   23.1776    1.2128 C.3       12 UNK        -0.0944 
      7 S7         32.1164   22.6759    1.2577 S.3       12 UNK        -0.2672 
      8 C8         32.2314   21.9518    2.9256 C.3       12 UNK         0.0333 
      9 C9         32.1699   23.0236    4.0049 C.ar      12 UNK        -0.0807 
     10 C10        33.3409   23.6624    4.4217 C.ar      12 UNK        -0.0894 
     11 C11        33.3030   24.6678    5.3989 C.ar      12 UNK        -0.0804 
     12 C12        32.0685   25.0144    5.9608 C.ar      12 UNK        -0.0824 
     13 C13        30.8889   24.3824    5.5532 C.ar      12 UNK        -0.0762 
     14 C14        30.9480   23.3813    4.5812 C.ar      12 UNK        -0.0782 
     15 C15        29.5479   24.7750    6.1607 C.3       12 UNK         0.0230 
     16 S16        28.5541   25.8040    5.0305 S.3       12 UNK        -0.2608 
     17 C17        29.5183   27.3534    5.0417 C.3       12 UNK        -0.0989 
     18 CA         28.9949   28.4431    4.0712 C.3       5 UNK         0.0716 
     19 N          28.8230   27.9358    2.7066 N.am      5 UNK        -0.4135 
     20 C          29.1254   28.6083    1.5894 C.2       4 UNK         0.5031 
     21 O          29.6274   29.7303    1.5752 O.2       4 UNK        -0.5229 
     22 CA         28.7580   27.9341    0.2596 C.3       4 UNK         0.0329 
     23 CB         29.8937   27.0263   -0.2346 C.3       4 UNK        -0.2001 
     24 N          27.5066   27.1737    0.3274 N.am      4 UNK        -0.4303 
     25 C          26.2981   27.7258    0.5067 C.2       3 UNK         0.5044 
     26 O          26.1465   28.9219    0.7574 O.2       3 UNK        -0.5152 
     27 CA         25.0572   26.8107    0.4411 C.3       3 UNK         0.0319 
     28 CB         23.8942   27.4756   -0.3243 C.3       3 UNK        -0.2001 
     29 N          25.3224   25.4584   -0.0704 N.am      3 UNK        -0.4354 
     30 C          25.7599   25.1042   -1.2888 C.2       2 UNK         0.4964 
     31 O          25.9591   25.8907   -2.2160 O.2       2 UNK        -0.5047 
     32 CA         26.0895   23.6117   -1.4717 C.3       2 UNK         0.0288 
     33 CB         25.6543   23.1004   -2.8566 C.3       2 UNK        -0.2113 
     34 N          27.5156   23.3215   -1.2861 N.am      2 UNK        -0.4145 
     35 C          28.2569   23.5672   -0.1955 C.2       1 UNK         0.5006 
     36 O          27.8206   24.1587    0.7944 O.2       1 UNK        -0.5103 
     37 C          27.7428   29.1851    4.5950 C.2       5 UNK         0.5055 
     38 O          27.7210   29.5662    5.7669 O.2       5 UNK        -0.5220 
     39 N          26.7365   29.3997    3.7336 N.am      6 UNK        -0.4450 
     40 CA         25.6037   30.2916    3.9843 C.3       6 UNK         0.0367 
     41 CB         24.2878   29.5960    3.5955 C.3       6 UNK        -0.1929 
     42 C          25.7926   31.5998    3.2014 C.2       6 UNK         0.5070 
     43 O          25.6102   32.6762    3.7700 O.2       6 UNK        -0.5237 
     44 N          26.1693   31.4889    1.9184 N.am      7 UNK        -0.4739 
     45 CA         26.4639   32.6164    1.0303 C.3       7 UNK         0.0276 
     46 CB         26.4994   32.1138   -0.4221 C.3       7 UNK        -0.1927 
     47 C          27.7781   33.3357    1.3812 C.2       7 UNK         0.5013 
     48 O          27.8540   34.5571    1.2392 O.2       7 UNK        -0.5193 
     49 N          28.7794   32.5719    1.8296 N.am      8 UNK        -0.4253 
     50 CA         30.0833   33.0448    2.2837 C.3       8 UNK         0.0242 
     51 CB         31.0823   33.0169    1.1070 C.3       8 UNK        -0.2000 
     52 C          30.4979   32.1939    3.4955 C.2       8 UNK         0.4948 
     53 O          29.6468   31.9037    4.3371 O.2       8 UNK        -0.5275 
     54 N          31.7778   31.8078    3.5750 N.am      9 UNK        -0.4246 
     55 CA         32.3303   30.9603    4.6389 C.3       9 UNK         0.0261 
     56 CB         33.5403   31.6806    5.2609 C.3       9 UNK        -0.1959 
     57 C          32.7412   29.5606    4.1459 C.2       9 UNK         0.5033 
     58 O          33.1743   28.7545    4.9697 O.2       9 UNK        -0.5390 
     59 N          32.6436   29.2993    2.8315 N.am      10 UNK        -0.4215 
     60 CA         33.1172   28.1196    2.0847 C.3       10 UNK         0.0240 
     61 CB         32.4050   26.8252    2.5241 C.3       10 UNK        -0.1982 
     62 C          34.6456   27.9311    2.1142 C.2       10 UNK         0.4970 
     63 O          35.2741   27.9102    1.0558 O.2       10 UNK        -0.4916 
     64 N          35.2055   27.7989    3.3195 N.am      11 UNK        -0.4279 
     65 CA         36.6349   27.5932    3.5950 C.3       11 UNK         0.1003 
     66 C          37.4847   28.8972    3.5676 C.2       11 UNK         0.5709 
     67 N          36.8965   30.0769    3.4054 N.am      11 UNK        -0.7358 
     68 O          38.7067   28.8363    3.6828 O.2       11 UNK        -0.4999 
     69 C69        36.8447   26.8060    4.9171 C.3       12 UNK        -0.0954 
     70 S70        36.0602   25.1585    4.8711 S.3       12 UNK        -0.2268 
     71 C71        34.5491   25.4263    5.8668 C.3       12 UNK         0.0203 
     72 H72        30.1939   19.2645   -1.4402 H         1 UNK         0.0888 
     73 H73        29.1219   19.4496   -2.8303 H         1 UNK         0.0888 
     74 H74        30.8550   19.7398   -3.0056 H         1 UNK         0.0888 
     75 H75        30.0219   20.9821   -0.0253 H         1 UNK         0.3017 
     76 H76        30.2722   23.7245   -0.8639 H         1 UNK         0.0873 
     77 H77        30.3117   24.2009    1.5878 H         1 UNK         0.0745 
     78 H78        29.7990   22.5685    1.9208 H         1 UNK         0.0745 
     79 H79        31.4393   21.2149    3.0676 H         1 UNK         0.0705 
     80 H80        33.1710   21.4030    3.0048 H         1 UNK         0.0705 
     81 H81        34.2750   23.3729    3.9632 H         1 UNK         0.1334 
     82 H82        32.0245   25.7941    6.7094 H         1 UNK         0.1417 
     83 H83        30.0367   22.8929    4.2651 H         1 UNK         0.1562 
     84 H84        29.6889   25.3046    7.1043 H         1 UNK         0.0748 
     85 H85        28.9837   23.8729    6.4014 H         1 UNK         0.0748 
     86 H86        30.5451   27.1123    4.7680 H         1 UNK         0.0940 
     87 H87        29.5776   27.7317    6.0641 H         1 UNK         0.0940 
     88 H88        29.7695   29.2101    4.0470 H         1 UNK         0.0703 
     89 H89        28.4139   27.0147    2.6301 H         1 UNK         0.3081 
     90 H90        28.6200   28.7287   -0.4771 H         1 UNK         0.0719 
     91 H91        30.8264   27.5841   -0.3271 H         1 UNK         0.0809 
     92 H92        29.6688   26.6096   -1.2166 H         1 UNK         0.0809 
     93 H93        30.0748   26.1981    0.4482 H         1 UNK         0.0809 
     94 H94        27.5611   26.1690    0.2082 H         1 UNK         0.2990 
     95 H95        24.7352   26.6799    1.4752 H         1 UNK         0.0690 
     96 H96        23.0127   26.8350   -0.3418 H         1 UNK         0.0788 
     97 H97        24.1650   27.7035   -1.3556 H         1 UNK         0.0788 
     98 H98        23.6001   28.4148    0.1461 H         1 UNK         0.0788 
     99 H99        25.2644   24.7268    0.6259 H         1 UNK         0.2993 
    100 H100       25.5370   23.0434   -0.7206 H         1 UNK         0.0949 
    101 H101       24.5978   23.3054   -3.0347 H         1 UNK         0.0767 
    102 H102       26.2196   23.5762   -3.6594 H         1 UNK         0.0767 
    103 H103       25.7941   22.0226   -2.9433 H         1 UNK         0.0767 
    104 H104       27.9949   22.8770   -2.0643 H         1 UNK         0.3013 
    105 H105       26.8349   29.0663    2.7837 H         1 UNK         0.3121 
    106 H106       25.5443   30.5449    5.0450 H         1 UNK         0.0774 
    107 H107       23.4332   30.2368    3.8161 H         1 UNK         0.0815 
    108 H108       24.2444   29.3554    2.5337 H         1 UNK         0.0815 
    109 H109       24.1508   28.6701    4.1541 H         1 UNK         0.0815 
    110 H110       26.2236   30.5625    1.4983 H         1 UNK         0.2987 
    111 H111       25.6540   33.3435    1.1227 H         1 UNK         0.0949 
    112 H112       25.5484   31.6649   -0.7095 H         1 UNK         0.0806 
    113 H113       26.6950   32.9331   -1.1153 H         1 UNK         0.0806 
    114 H114       27.2792   31.3652   -0.5704 H         1 UNK         0.0806 
    115 H115       28.6369   31.5722    1.9227 H         1 UNK         0.3010 
    116 H116       29.9939   34.0718    2.6440 H         1 UNK         0.0829 
    117 H117       30.7139   33.6108    0.2702 H         1 UNK         0.0813 
    118 H118       32.0478   33.4388    1.3879 H         1 UNK         0.0813 
    119 H119       31.2464   32.0028    0.7397 H         1 UNK         0.0813 
    120 H120       32.4198   32.1235    2.8615 H         1 UNK         0.3038 
    121 H121       31.5918   30.8042    5.4281 H         1 UNK         0.0769 
    122 H122       34.3324   31.8503    4.5308 H         1 UNK         0.0811 
    123 H123       33.9691   31.0980    6.0778 H         1 UNK         0.0811 
    124 H124       33.2535   32.6477    5.6743 H         1 UNK         0.0811 
    125 H125       32.2156   30.0122    2.2576 H         1 UNK         0.3204 
    126 H126       32.8448   28.3011    1.0439 H         1 UNK         0.0748 
    127 H127       32.7331   25.9727    1.9275 H         1 UNK         0.0771 
    128 H128       32.6095   26.5834    3.5647 H         1 UNK         0.0771 
    129 H129       31.3274   26.8979    2.4118 H         1 UNK         0.0771 
    130 H130       34.5953   27.8999    4.1267 H         1 UNK         0.2980 
    131 H131       37.0357   26.9766    2.7883 H         1 UNK         0.0545 
    132 H132       35.8987   30.1356    3.2948 H         1 UNK         0.3459 
    133 H133       37.4618   30.9108    3.3834 H         1 UNK         0.3459 
    134 H134       37.9087   26.6457    5.1001 H         1 UNK         0.0616 
    135 H135       36.4744   27.3748    5.7717 H         1 UNK         0.0616 
    136 H136       34.7644   25.1528    6.9004 H         1 UNK         0.0634 
    137 H137       34.3136   26.4907    5.8726 H         1 UNK         0.0634 
@<TRIPOS>BOND
     1    1    2 1    
     2    1   72 1    
     3    1   73 1    
     4    1   74 1    
     5    2    3 2    
     6    2    4 am   BACKBONE|DICT|INTERRES
     7    4    5 1    
     8    4   75 1    
     9    5    6 1    
    10    5   35 1    
    11    5   76 1    
    12    6    7 1    
    13    6   77 1    
    14    6   78 1    
    15    7    8 1    
    16    8    9 1    
    17    8   79 1    
    18    8   80 1    
    19    9   10 ar   
    20    9   14 ar   
    21   10   11 ar   
    22   10   81 1    
    23   11   12 ar   
    24   11   71 1    
    25   12   13 ar   
    26   12   82 1    
    27   13   14 ar   
    28   13   15 1    
    29   14   83 1    
    30   15   16 1    
    31   15   84 1    
    32   15   85 1    
    33   16   17 1    
    34   17   18 1    
    35   17   86 1    
    36   17   87 1    
    37   18   19 1    
    38   18   37 1    
    39   18   88 1    
    40   19   20 am   BACKBONE|DICT|INTERRES
    41   19   89 1    
    42   20   21 2    
    43   20   22 1    
    44   22   23 1    
    45   22   24 1    
    46   22   90 1    
    47   23   91 1    
    48   23   92 1    
    49   23   93 1    
    50   24   25 am   BACKBONE|DICT|INTERRES
    51   24   94 1    
    52   25   26 2    
    53   25   27 1    
    54   27   28 1    
    55   27   29 1    
    56   27   95 1    
    57   28   96 1    
    58   28   97 1    
    59   28   98 1    
    60   29   30 am   BACKBONE|DICT|INTERRES
    61   29   99 1    
    62   30   31 2    
    63   30   32 1    
    64   32   33 1    
    65   32   34 1    
    66   32  100 1    
    67   33  101 1    
    68   33  102 1    
    69   33  103 1    
    70   34   35 am   BACKBONE|DICT|INTERRES
    71   34  104 1    
    72   35   36 2    
    73   37   38 2    
    74   37   39 am   BACKBONE|DICT|INTERRES
    75   39   40 1    
    76   39  105 1    
    77   40   41 1    
    78   40   42 1    
    79   40  106 1    
    80   41  107 1    
    81   41  108 1    
    82   41  109 1    
    83   42   43 2    
    84   42   44 am   BACKBONE|DICT|INTERRES
    85   44   45 1    
    86   44  110 1    
    87   45   46 1    
    88   45   47 1    
    89   45  111 1    
    90   46  112 1    
    91   46  113 1    
    92   46  114 1    
    93   47   48 2    
    94   47   49 am   BACKBONE|DICT|INTERRES
    95   49   50 1    
    96   49  115 1    
    97   50   51 1    
    98   50   52 1    
    99   50  116 1    
   100   51  117 1    
   101   51  118 1    
   102   51  119 1    
   103   52   53 2    
   104   52   54 am   BACKBONE|DICT|INTERRES
   105   54   55 1    
   106   54  120 1    
   107   55   56 1    
   108   55   57 1    
   109   55  121 1    
   110   56  122 1    
   111   56  123 1    
   112   56  124 1    
   113   57   58 2    
   114   57   59 am   BACKBONE|DICT|INTERRES
   115   59   60 1    
   116   59  125 1    
   117   60   61 1    
   118   60   62 1    
   119   60  126 1    
   120   61  127 1    
   121   61  128 1    
   122   61  129 1    
   123   62   63 2    
   124   62   64 am   BACKBONE|DICT|INTERRES
   125   64   65 1    
   126   64  130 1    
   127   65   66 1    
   128   65   69 1    
   129   65  131 1    
   130   66   67 am   BACKBONE|DICT|INTERRES
   131   66   68 2    
   132   67  132 1    
   133   67  133 1    
   134   69   70 1    
   135   69  134 1    
   136   69  135 1    
   137   70   71 1    
   138   71  136 1    
   139   71  137 1    
@<TRIPOS>SUBSTRUCTURE
     1 UNK         1 GROUP             0       ****    0 ROOT    
