@<TRIPOS>MOLECULE
3R136
137   139    1
SMALL
USER_CHARGES


@<TRIPOS>ATOM
      1 CA         33.1304   20.1071   -0.0479 C.3       0 UNK        -0.1979 
      2 C          32.0622   21.0808    0.4256 C.2       0 UNK         0.4864 
      3 O          32.2446   22.2944    0.3123 O.2       0 UNK        -0.5359 
      4 N          30.9394   20.5635    0.9416 N.am      1 UNK        -0.4318 
      5 CA         29.8095   21.3289    1.4877 C.3       1 UNK         0.0824 
      6 C6         28.9942   20.4921    2.5097 C.3       12 UNK        -0.0944 
      7 S7         30.0067   19.9939    3.9457 S.3       12 UNK        -0.2672 
      8 C8         29.5374   21.2413    5.1900 C.3       12 UNK         0.0333 
      9 C9         29.8235   22.6592    4.7142 C.ar      12 UNK        -0.0807 
     10 C10        31.1384   23.1308    4.6509 C.ar      12 UNK        -0.0894 
     11 C11        31.4071   24.4207    4.1824 C.ar      12 UNK        -0.0804 
     12 C12        30.3501   25.2461    3.7884 C.ar      12 UNK        -0.0824 
     13 C13        29.0312   24.7887    3.8611 C.ar      12 UNK        -0.0762 
     14 C14        28.7732   23.4948    4.3217 C.ar      12 UNK        -0.0782 
     15 C15        27.8847   25.7013    3.4646 C.3       12 UNK         0.0230 
     16 S16        27.6788   25.7670    1.6590 S.3       12 UNK        -0.2608 
     17 C17        26.2599   26.9116    1.5364 C.3       12 UNK        -0.0989 
     18 CA         26.6680   28.3856    1.7761 C.3       5 UNK         0.0716 
     19 N          27.7074   28.8236    0.8480 N.am      5 UNK        -0.4135 
     20 C          28.4499   29.9277    0.9756 C.2       4 UNK         0.5031 
     21 O          28.3121   30.7402    1.8935 O.2       4 UNK        -0.5229 
     22 CA         29.5650   30.1162   -0.0706 C.3       4 UNK         0.0329 
     23 CB         30.4635   31.3315    0.2273 C.3       4 UNK        -0.2001 
     24 N          30.3894   28.9037   -0.1888 N.am      4 UNK        -0.4303 
     25 C          30.0702   27.8481   -0.9529 C.2       3 UNK         0.5044 
     26 O          29.0443   27.8184   -1.6372 O.2       3 UNK        -0.5152 
     27 CA         31.0033   26.6198   -0.9508 C.3       3 UNK         0.0319 
     28 CB         32.0250   26.5849    0.2000 C.3       3 UNK        -0.2001 
     29 N          30.2060   25.3953   -0.8929 N.am      3 UNK        -0.4354 
     30 C          29.8050   24.6739   -1.9477 C.2       2 UNK         0.4964 
     31 O          30.1134   24.9277   -3.1138 O.2       2 UNK        -0.5047 
     32 CA         28.9502   23.4375   -1.6260 C.3       2 UNK         0.0288 
     33 CB         28.7642   22.4910   -2.8300 C.3       2 UNK        -0.2113 
     34 N          29.5568   22.7184   -0.5088 N.am      2 UNK        -0.4145 
     35 C          28.9278   21.9340    0.3711 C.2       1 UNK         0.5006 
     36 O          27.7226   21.6792    0.3170 O.2       1 UNK        -0.5103 
     37 C          25.4553   29.3329    1.7340 C.2       5 UNK         0.5055 
     38 O          25.1010   29.8285    0.6614 O.2       5 UNK        -0.5220 
     39 N          24.8676   29.5755    2.9160 N.am      6 UNK        -0.4450 
     40 CA         23.8413   30.5895    3.2048 C.3       6 UNK         0.0367 
     41 CB         22.5382   30.3222    2.4204 C.3       6 UNK        -0.1929 
     42 C          24.3549   32.0380    3.0414 C.2       6 UNK         0.5070 
     43 O          23.5530   32.9550    2.8560 O.2       6 UNK        -0.5237 
     44 N          25.6775   32.2217    3.1333 N.am      7 UNK        -0.4739 
     45 CA         26.3779   33.4974    3.0471 C.3       7 UNK         0.0276 
     46 CB         26.6577   33.8489    1.5686 C.3       7 UNK        -0.1927 
     47 C          27.6241   33.4203    3.9446 C.2       7 UNK         0.5013 
     48 O          27.4819   33.1749    5.1437 O.2       7 UNK        -0.5193 
     49 N          28.8143   33.6333    3.3695 N.am      8 UNK        -0.4253 
     50 CA         30.0991   33.6905    4.0739 C.3       8 UNK         0.0242 
     51 CB         31.1187   34.4014    3.1665 C.3       8 UNK        -0.2000 
     52 C          30.6595   32.3280    4.5258 C.2       8 UNK         0.4948 
     53 O          31.6454   32.3151    5.2656 O.2       8 UNK        -0.5275 
     54 N          30.0886   31.2156    4.0398 N.am      9 UNK        -0.4246 
     55 CA         30.5506   29.8242    4.1551 C.3       9 UNK         0.0261 
     56 CB         30.6898   29.3513    5.6154 C.3       9 UNK        -0.1959 
     57 C          31.8243   29.5714    3.3346 C.2       9 UNK         0.5033 
     58 O          31.7906   28.7411    2.4295 O.2       9 UNK        -0.5390 
     59 N          32.8890   30.3366    3.6152 N.am      10 UNK        -0.4215 
     60 CA         34.1639   30.3984    2.8870 C.3       10 UNK         0.0240 
     61 CB         33.9568   31.0530    1.5040 C.3       10 UNK        -0.1982 
     62 C          34.8989   29.0451    2.8000 C.2       10 UNK         0.4970 
     63 O          35.4811   28.7248    1.7615 O.2       10 UNK        -0.4916 
     64 N          34.8516   28.2747    3.8931 N.am      11 UNK        -0.4279 
     65 CA         35.4977   26.9624    4.0252 C.3       11 UNK         0.1003 
     66 C          37.0489   27.0437    3.9867 C.2       11 UNK         0.5709 
     67 N          37.7112   26.0237    3.4576 N.am      11 UNK        -0.7358 
     68 O          37.6557   27.9990    4.4690 O.2       11 UNK        -0.4999 
     69 C69        35.0238   26.2155    5.2998 C.3       12 UNK        -0.0954 
     70 S70        33.2115   26.0747    5.4499 S.3       12 UNK        -0.2268 
     71 C71        32.8386   24.9219    4.0950 C.3       12 UNK         0.0203 
     72 H72        34.0616   20.2831    0.4898 H         1 UNK         0.0888 
     73 H73        32.8368   19.0699    0.1127 H         1 UNK         0.0888 
     74 H74        33.3192   20.2460   -1.1121 H         1 UNK         0.0888 
     75 H75        30.8409   19.5597    0.9948 H         1 UNK         0.3017 
     76 H76        30.2219   22.1862    2.0227 H         1 UNK         0.0873 
     77 H77        28.1251   21.0467    2.8676 H         1 UNK         0.0745 
     78 H78        28.5999   19.5909    2.0367 H         1 UNK         0.0745 
     79 H79        28.4819   21.1198    5.4387 H         1 UNK         0.0705 
     80 H80        30.0915   21.0495    6.1100 H         1 UNK         0.0705 
     81 H81        31.9520   22.4849    4.9521 H         1 UNK         0.1334 
     82 H82        30.5551   26.2476    3.4332 H         1 UNK         0.1417 
     83 H83        27.7535   23.1374    4.3714 H         1 UNK         0.1562 
     84 H84        28.0794   26.7012    3.8534 H         1 UNK         0.0748 
     85 H85        26.9532   25.3667    3.9241 H         1 UNK         0.0748 
     86 H86        25.4940   26.5978    2.2485 H         1 UNK         0.0940 
     87 H87        25.8154   26.7961    0.5458 H         1 UNK         0.0940 
     88 H88        27.0984   28.4615    2.7760 H         1 UNK         0.0703 
     89 H89        27.8794   28.2295    0.0458 H         1 UNK         0.3081 
     90 H90        29.0721   30.3103   -1.0255 H         1 UNK         0.0719 
     91 H91        30.9558   31.2479    1.1942 H         1 UNK         0.0809 
     92 H92        31.2355   31.4501   -0.5328 H         1 UNK         0.0809 
     93 H93        29.8795   32.2525    0.2408 H         1 UNK         0.0809 
     94 H94        31.1603   28.8191    0.4677 H         1 UNK         0.2990 
     95 H95        31.5634   26.6527   -1.8874 H         1 UNK         0.0690 
     96 H96        32.6768   27.4595    0.1927 H         1 UNK         0.0788 
     97 H97        32.6719   25.7109    0.1194 H         1 UNK         0.0788 
     98 H98        31.5328   26.5334    1.1709 H         1 UNK         0.0788 
     99 H99        29.8534   25.1395    0.0190 H         1 UNK         0.2993 
    100 H100       27.9693   23.8075   -1.3184 H         1 UNK         0.0949 
    101 H101       28.1235   21.6461   -2.5771 H         1 UNK         0.0767 
    102 H102       28.2963   23.0096   -3.6678 H         1 UNK         0.0767 
    103 H103       29.7188   22.0953   -3.1789 H         1 UNK         0.0767 
    104 H104       30.5608   22.8419   -0.3848 H         1 UNK         0.3013 
    105 H105       25.2249   29.0935    3.7301 H         1 UNK         0.3121 
    106 H106       23.6064   30.4811    4.2648 H         1 UNK         0.0774 
    107 H107       21.7324   30.9670    2.7731 H         1 UNK         0.0815 
    108 H108       22.6577   30.5129    1.3538 H         1 UNK         0.0815 
    109 H109       22.2037   29.2922    2.5434 H         1 UNK         0.0815 
    110 H110       26.2700   31.4187    3.2960 H         1 UNK         0.2987 
    111 H111       25.7468   34.2813    3.4719 H         1 UNK         0.0949 
    112 H112       27.2646   33.0900    1.0739 H         1 UNK         0.0806 
    113 H113       25.7271   33.9350    1.0075 H         1 UNK         0.0806 
    114 H114       27.1695   34.8077    1.4762 H         1 UNK         0.0806 
    115 H115       28.8369   33.7920    2.3728 H         1 UNK         0.3010 
    116 H116       29.9655   34.2933    4.9749 H         1 UNK         0.0829 
    117 H117       30.7816   35.4024    2.8964 H         1 UNK         0.0813 
    118 H118       32.0811   34.5129    3.6683 H         1 UNK         0.0813 
    119 H119       31.2961   33.8450    2.2450 H         1 UNK         0.0813 
    120 H120       29.3217   31.3336    3.3809 H         1 UNK         0.3038 
    121 H121       29.7642   29.2183    3.7024 H         1 UNK         0.0769 
    122 H122       31.4903   29.8652    6.1474 H         1 UNK         0.0811 
    123 H123       30.9128   28.2842    5.6534 H         1 UNK         0.0811 
    124 H124       29.7649   29.5086    6.1700 H         1 UNK         0.0811 
    125 H125       32.7626   31.0195    4.3593 H         1 UNK         0.3204 
    126 H126       34.8129   31.0559    3.4671 H         1 UNK         0.0748 
    127 H127       34.9117   31.2382    1.0107 H         1 UNK         0.0771 
    128 H128       33.3676   30.4173    0.8422 H         1 UNK         0.0771 
    129 H129       33.4476   32.0129    1.5906 H         1 UNK         0.0771 
    130 H130       34.3521   28.6071    4.7034 H         1 UNK         0.2980 
    131 H131       35.1876   26.3766    3.1581 H         1 UNK         0.0545 
    132 H132       38.7187   26.0523    3.4386 H         1 UNK         0.3459 
    133 H133       37.2263   25.2293    3.0705 H         1 UNK         0.3459 
    134 H134       35.4471   25.2098    5.3342 H         1 UNK         0.0616 
    135 H135       35.3869   26.7264    6.1936 H         1 UNK         0.0616 
    136 H136       32.9894   25.4247    3.1386 H         1 UNK         0.0634 
    137 H137       33.5382   24.0850    4.1231 H         1 UNK         0.0634 
@<TRIPOS>BOND
     1    1    2 1    
     2    1   72 1    
     3    1   73 1    
     4    1   74 1    
     5    2    3 2    
     6    2    4 am   BACKBONE|DICT|INTERRES
     7    4    5 1    
     8    4   75 1    
     9    5    6 1    
    10    5   35 1    
    11    5   76 1    
    12    6    7 1    
    13    6   77 1    
    14    6   78 1    
    15    7    8 1    
    16    8    9 1    
    17    8   79 1    
    18    8   80 1    
    19    9   10 ar   
    20    9   14 ar   
    21   10   11 ar   
    22   10   81 1    
    23   11   12 ar   
    24   11   71 1    
    25   12   13 ar   
    26   12   82 1    
    27   13   14 ar   
    28   13   15 1    
    29   14   83 1    
    30   15   16 1    
    31   15   84 1    
    32   15   85 1    
    33   16   17 1    
    34   17   18 1    
    35   17   86 1    
    36   17   87 1    
    37   18   19 1    
    38   18   37 1    
    39   18   88 1    
    40   19   20 am   BACKBONE|DICT|INTERRES
    41   19   89 1    
    42   20   21 2    
    43   20   22 1    
    44   22   23 1    
    45   22   24 1    
    46   22   90 1    
    47   23   91 1    
    48   23   92 1    
    49   23   93 1    
    50   24   25 am   BACKBONE|DICT|INTERRES
    51   24   94 1    
    52   25   26 2    
    53   25   27 1    
    54   27   28 1    
    55   27   29 1    
    56   27   95 1    
    57   28   96 1    
    58   28   97 1    
    59   28   98 1    
    60   29   30 am   BACKBONE|DICT|INTERRES
    61   29   99 1    
    62   30   31 2    
    63   30   32 1    
    64   32   33 1    
    65   32   34 1    
    66   32  100 1    
    67   33  101 1    
    68   33  102 1    
    69   33  103 1    
    70   34   35 am   BACKBONE|DICT|INTERRES
    71   34  104 1    
    72   35   36 2    
    73   37   38 2    
    74   37   39 am   BACKBONE|DICT|INTERRES
    75   39   40 1    
    76   39  105 1    
    77   40   41 1    
    78   40   42 1    
    79   40  106 1    
    80   41  107 1    
    81   41  108 1    
    82   41  109 1    
    83   42   43 2    
    84   42   44 am   BACKBONE|DICT|INTERRES
    85   44   45 1    
    86   44  110 1    
    87   45   46 1    
    88   45   47 1    
    89   45  111 1    
    90   46  112 1    
    91   46  113 1    
    92   46  114 1    
    93   47   48 2    
    94   47   49 am   BACKBONE|DICT|INTERRES
    95   49   50 1    
    96   49  115 1    
    97   50   51 1    
    98   50   52 1    
    99   50  116 1    
   100   51  117 1    
   101   51  118 1    
   102   51  119 1    
   103   52   53 2    
   104   52   54 am   BACKBONE|DICT|INTERRES
   105   54   55 1    
   106   54  120 1    
   107   55   56 1    
   108   55   57 1    
   109   55  121 1    
   110   56  122 1    
   111   56  123 1    
   112   56  124 1    
   113   57   58 2    
   114   57   59 am   BACKBONE|DICT|INTERRES
   115   59   60 1    
   116   59  125 1    
   117   60   61 1    
   118   60   62 1    
   119   60  126 1    
   120   61  127 1    
   121   61  128 1    
   122   61  129 1    
   123   62   63 2    
   124   62   64 am   BACKBONE|DICT|INTERRES
   125   64   65 1    
   126   64  130 1    
   127   65   66 1    
   128   65   69 1    
   129   65  131 1    
   130   66   67 am   BACKBONE|DICT|INTERRES
   131   66   68 2    
   132   67  132 1    
   133   67  133 1    
   134   69   70 1    
   135   69  134 1    
   136   69  135 1    
   137   70   71 1    
   138   71  136 1    
   139   71  137 1    
@<TRIPOS>SUBSTRUCTURE
     1 UNK         1 GROUP             0       ****    0 ROOT    
