@<TRIPOS>MOLECULE
3R136
137   139    1
SMALL
USER_CHARGES


@<TRIPOS>ATOM
      1 CA         31.8631   20.9186   -2.6619 C.3       0 UNK        -0.1979 
      2 C          30.9503   21.9753   -3.2668 C.2       0 UNK         0.4864 
      3 O          30.6026   21.8814   -4.4454 O.2       0 UNK        -0.5359 
      4 N          30.5673   22.9815   -2.4712 N.am      1 UNK        -0.4318 
      5 CA         29.6254   24.0378   -2.8507 C.3       1 UNK         0.0824 
      6 C6         29.8740   25.3350   -2.0336 C.3       12 UNK        -0.0944 
      7 S7         29.4845   25.2143   -0.2530 S.3       12 UNK        -0.2672 
      8 C8         31.1352   24.9774    0.4872 C.3       12 UNK         0.0333 
      9 C9         31.0978   24.8753    2.0101 C.ar      12 UNK        -0.0807 
     10 C10        32.0997   25.4854    2.7734 C.ar      12 UNK        -0.0894 
     11 C11        32.0966   25.3780    4.1682 C.ar      12 UNK        -0.0804 
     12 C12        31.0681   24.6780    4.8047 C.ar      12 UNK        -0.0824 
     13 C13        30.0546   24.0743    4.0566 C.ar      12 UNK        -0.0762 
     14 C14        30.0902   24.1536    2.6618 C.ar      12 UNK        -0.0782 
     15 C15        28.9050   23.3602    4.7519 C.3       12 UNK         0.0230 
     16 S16        27.3131   24.1970    4.4535 S.3       12 UNK        -0.2608 
     17 C17        27.5809   25.8318    5.2284 C.3       12 UNK        -0.0989 
     18 CA         28.1005   26.9050    4.2359 C.3       5 UNK         0.0716 
     19 N          27.2807   26.9985    3.0295 N.am      5 UNK        -0.4135 
     20 C          27.5770   27.7124    1.9374 C.2       4 UNK         0.5031 
     21 O          28.5921   28.4077    1.8298 O.2       4 UNK        -0.5229 
     22 CA         26.5709   27.6139    0.7736 C.3       4 UNK         0.0329 
     23 CB         27.0503   28.3275   -0.5025 C.3       4 UNK        -0.2001 
     24 N          26.2737   26.2209    0.4344 N.am      4 UNK        -0.4303 
     25 C          25.3901   25.4287    1.0536 C.2       3 UNK         0.5044 
     26 O          24.7226   25.7978    2.0215 O.2       3 UNK        -0.5152 
     27 CA         25.2606   23.9808    0.5339 C.3       3 UNK         0.0319 
     28 CB         23.8557   23.3909    0.7779 C.3       3 UNK        -0.2001 
     29 N          25.6622   23.8036   -0.8701 N.am      3 UNK        -0.4354 
     30 C          25.1327   24.3791   -1.9605 C.2       2 UNK         0.4964 
     31 O          24.1941   25.1765   -1.9262 O.2       2 UNK        -0.5047 
     32 CA         25.7857   24.0151   -3.3128 C.3       2 UNK         0.0288 
     33 CB         25.1272   24.7386   -4.5034 C.3       2 UNK        -0.2113 
     34 N          27.2278   24.2900   -3.3350 N.am      2 UNK        -0.4145 
     35 C          28.1674   23.5350   -2.7492 C.2       1 UNK         0.5006 
     36 O          27.9042   22.5090   -2.1127 O.2       1 UNK        -0.5103 
     37 C          28.2098   28.2830    4.9109 C.2       5 UNK         0.5055 
     38 O          27.1799   28.9105    5.1688 O.2       5 UNK        -0.5220 
     39 N          29.4509   28.7299    5.1480 N.am      6 UNK        -0.4450 
     40 CA         29.8318   30.0532    5.6605 C.3       6 UNK         0.0367 
     41 CB         29.2695   30.2883    7.0790 C.3       6 UNK        -0.1929 
     42 C          29.5163   31.2210    4.6978 C.2       6 UNK         0.5070 
     43 O          29.5372   32.3742    5.1323 O.2       6 UNK        -0.5237 
     44 N          29.2424   30.9229    3.4184 N.am      7 UNK        -0.4739 
     45 CA         28.9817   31.9077    2.3660 C.3       7 UNK         0.0276 
     46 CB         27.5176   31.8070    1.9073 C.3       7 UNK        -0.1927 
     47 C          29.9523   31.7323    1.1902 C.2       7 UNK         0.5013 
     48 O          30.5135   32.7260    0.7274 O.2       7 UNK        -0.5193 
     49 N          30.1620   30.4857    0.7388 N.am      8 UNK        -0.4253 
     50 CA         31.1253   30.1432   -0.3169 C.3       8 UNK         0.0242 
     51 CB         30.8060   28.7469   -0.8714 C.3       8 UNK        -0.2000 
     52 C          32.5928   30.2145    0.1421 C.2       8 UNK         0.4948 
     53 O          33.4816   30.3644   -0.6977 O.2       8 UNK        -0.5275 
     54 N          32.8194   30.1130    1.4540 N.am      9 UNK        -0.4246 
     55 CA         34.1019   30.2749    2.1239 C.3       9 UNK         0.0261 
     56 CB         34.7622   28.8984    2.3134 C.3       9 UNK        -0.1959 
     57 C          33.8169   30.9339    3.4742 C.2       9 UNK         0.5033 
     58 O          32.7256   30.7467    4.0168 O.2       9 UNK        -0.5390 
     59 N          34.8026   31.6508    4.0254 N.am      10 UNK        -0.4215 
     60 CA         34.7173   32.3507    5.3148 C.3       10 UNK         0.0240 
     61 CB         35.7393   33.5039    5.3229 C.3       10 UNK        -0.1982 
     62 C          34.8734   31.4124    6.5332 C.2       10 UNK         0.4970 
     63 O          35.5297   31.7787    7.5103 O.2       10 UNK        -0.4916 
     64 N          34.2882   30.2143    6.4484 N.am      11 UNK        -0.4279 
     65 CA         34.2488   29.2025    7.5084 C.3       11 UNK         0.1003 
     66 C          33.1866   29.5067    8.6032 C.2       11 UNK         0.5709 
     67 N          33.2136   28.7765    9.7104 N.am      11 UNK        -0.7358 
     68 O          32.3416   30.3895    8.4677 O.2       11 UNK        -0.4999 
     69 C69        34.1278   27.7741    6.9129 C.3       12 UNK        -0.0954 
     70 S70        32.6896   27.5182    5.8184 S.3       12 UNK        -0.2268 
     71 C71        33.2165   25.9871    4.9954 C.3       12 UNK         0.0203 
     72 H72        32.1031   21.1343   -1.6209 H         1 UNK         0.0888 
     73 H73        31.3834   19.9411   -2.7034 H         1 UNK         0.0888 
     74 H74        32.7970   20.8647   -3.2207 H         1 UNK         0.0888 
     75 H75        30.8348   22.9742   -1.4987 H         1 UNK         0.3017 
     76 H76        29.8020   24.2800   -3.9013 H         1 UNK         0.0873 
     77 H77        30.9105   25.6544   -2.1540 H         1 UNK         0.0745 
     78 H78        29.2783   26.1521   -2.4436 H         1 UNK         0.0745 
     79 H79        31.7758   25.8055    0.1806 H         1 UNK         0.0705 
     80 H80        31.5858   24.0683    0.0891 H         1 UNK         0.0705 
     81 H81        32.8930   26.0310    2.2809 H         1 UNK         0.1334 
     82 H82        31.0573   24.6107    5.8842 H         1 UNK         0.1417 
     83 H83        29.3090   23.6750    2.0874 H         1 UNK         0.1562 
     84 H84        29.0776   23.2877    5.8269 H         1 UNK         0.0748 
     85 H85        28.8425   22.3365    4.3803 H         1 UNK         0.0748 
     86 H86        28.2708   25.7218    6.0673 H         1 UNK         0.0940 
     87 H87        26.6294   26.1465    5.6621 H         1 UNK         0.0940 
     88 H88        29.0983   26.6144    3.9054 H         1 UNK         0.0703 
     89 H89        26.4150   26.4720    3.0317 H         1 UNK         0.3081 
     90 H90        25.6542   28.1060    1.1050 H         1 UNK         0.0719 
     91 H91        27.9133   27.8230   -0.9331 H         1 UNK         0.0809 
     92 H92        26.2664   28.3459   -1.2597 H         1 UNK         0.0809 
     93 H93        27.3337   29.3618   -0.3077 H         1 UNK         0.0809 
     94 H94        26.8325   25.8145   -0.3018 H         1 UNK         0.2990 
     95 H95        25.9684   23.3948    1.1222 H         1 UNK         0.0690 
     96 H96        23.7915   22.3606    0.4283 H         1 UNK         0.0788 
     97 H97        23.0817   23.9673    0.2701 H         1 UNK         0.0788 
     98 H98        23.6115   23.3853    1.8410 H         1 UNK         0.0788 
     99 H99        26.4521   23.1822   -1.0286 H         1 UNK         0.2993 
    100 H100       25.6341   22.9427   -3.4561 H         1 UNK         0.0949 
    101 H101       24.0594   24.5204   -4.5523 H         1 UNK         0.0767 
    102 H102       25.2364   25.8215   -4.4291 H         1 UNK         0.0767 
    103 H103       25.5627   24.4209   -5.4510 H         1 UNK         0.0767 
    104 H104       27.5109   25.1334   -3.8130 H         1 UNK         0.3013 
    105 H105       30.2305   28.1353    4.8970 H         1 UNK         0.3121 
    106 H106       30.9178   30.0332    5.7534 H         1 UNK         0.0774 
    107 H107       29.7017   31.1858    7.5231 H         1 UNK         0.0815 
    108 H108       28.1874   30.4191    7.0752 H         1 UNK         0.0815 
    109 H109       29.5099   29.4579    7.7426 H         1 UNK         0.0815 
    110 H110       29.2196   29.9490    3.1396 H         1 UNK         0.2987 
    111 H111       29.1389   32.9190    2.7476 H         1 UNK         0.0949 
    112 H112       27.3136   32.5007    1.0906 H         1 UNK         0.0806 
    113 H113       27.2665   30.8064    1.5591 H         1 UNK         0.0806 
    114 H114       26.8354   32.0540    2.7209 H         1 UNK         0.0806 
    115 H115       29.6304   29.7139    1.1399 H         1 UNK         0.3010 
    116 H116       31.0138   30.8621   -1.1316 H         1 UNK         0.0829 
    117 H117       29.8831   28.7615   -1.4475 H         1 UNK         0.0813 
    118 H118       31.5902   28.3934   -1.5425 H         1 UNK         0.0813 
    119 H119       30.7001   28.0119   -0.0733 H         1 UNK         0.0813 
    120 H120       32.0319   30.0587    2.0882 H         1 UNK         0.3038 
    121 H121       34.7523   30.9283    1.5382 H         1 UNK         0.0769 
    122 H122       35.7248   28.9891    2.8179 H         1 UNK         0.0811 
    123 H123       34.9418   28.4102    1.3554 H         1 UNK         0.0811 
    124 H124       34.1386   28.2358    2.9147 H         1 UNK         0.0811 
    125 H125       35.6862   31.7149    3.5395 H         1 UNK         0.3204 
    126 H126       33.7228   32.7952    5.3966 H         1 UNK         0.0748 
    127 H127       35.6489   34.1039    6.2296 H         1 UNK         0.0771 
    128 H128       36.7645   33.1344    5.2762 H         1 UNK         0.0771 
    129 H129       35.5853   34.1771    4.4793 H         1 UNK         0.0771 
    130 H130       33.6974   30.0350    5.6442 H         1 UNK         0.2980 
    131 H131       35.2116   29.2442    8.0214 H         1 UNK         0.0545 
    132 H132       33.8997   28.0502    9.8419 H         1 UNK         0.3459 
    133 H133       32.5326   28.9588   10.4306 H         1 UNK         0.3459 
    134 H134       34.1006   27.0227    7.7036 H         1 UNK         0.0616 
    135 H135       35.0298   27.5595    6.3375 H         1 UNK         0.0616 
    136 H136       33.5396   25.2661    5.7480 H         1 UNK         0.0634 
    137 H137       34.0882   26.1938    4.3728 H         1 UNK         0.0634 
@<TRIPOS>BOND
     1    1    2 1    
     2    1   72 1    
     3    1   73 1    
     4    1   74 1    
     5    2    3 2    
     6    2    4 am   BACKBONE|DICT|INTERRES
     7    4    5 1    
     8    4   75 1    
     9    5    6 1    
    10    5   35 1    
    11    5   76 1    
    12    6    7 1    
    13    6   77 1    
    14    6   78 1    
    15    7    8 1    
    16    8    9 1    
    17    8   79 1    
    18    8   80 1    
    19    9   10 ar   
    20    9   14 ar   
    21   10   11 ar   
    22   10   81 1    
    23   11   12 ar   
    24   11   71 1    
    25   12   13 ar   
    26   12   82 1    
    27   13   14 ar   
    28   13   15 1    
    29   14   83 1    
    30   15   16 1    
    31   15   84 1    
    32   15   85 1    
    33   16   17 1    
    34   17   18 1    
    35   17   86 1    
    36   17   87 1    
    37   18   19 1    
    38   18   37 1    
    39   18   88 1    
    40   19   20 am   BACKBONE|DICT|INTERRES
    41   19   89 1    
    42   20   21 2    
    43   20   22 1    
    44   22   23 1    
    45   22   24 1    
    46   22   90 1    
    47   23   91 1    
    48   23   92 1    
    49   23   93 1    
    50   24   25 am   BACKBONE|DICT|INTERRES
    51   24   94 1    
    52   25   26 2    
    53   25   27 1    
    54   27   28 1    
    55   27   29 1    
    56   27   95 1    
    57   28   96 1    
    58   28   97 1    
    59   28   98 1    
    60   29   30 am   BACKBONE|DICT|INTERRES
    61   29   99 1    
    62   30   31 2    
    63   30   32 1    
    64   32   33 1    
    65   32   34 1    
    66   32  100 1    
    67   33  101 1    
    68   33  102 1    
    69   33  103 1    
    70   34   35 am   BACKBONE|DICT|INTERRES
    71   34  104 1    
    72   35   36 2    
    73   37   38 2    
    74   37   39 am   BACKBONE|DICT|INTERRES
    75   39   40 1    
    76   39  105 1    
    77   40   41 1    
    78   40   42 1    
    79   40  106 1    
    80   41  107 1    
    81   41  108 1    
    82   41  109 1    
    83   42   43 2    
    84   42   44 am   BACKBONE|DICT|INTERRES
    85   44   45 1    
    86   44  110 1    
    87   45   46 1    
    88   45   47 1    
    89   45  111 1    
    90   46  112 1    
    91   46  113 1    
    92   46  114 1    
    93   47   48 2    
    94   47   49 am   BACKBONE|DICT|INTERRES
    95   49   50 1    
    96   49  115 1    
    97   50   51 1    
    98   50   52 1    
    99   50  116 1    
   100   51  117 1    
   101   51  118 1    
   102   51  119 1    
   103   52   53 2    
   104   52   54 am   BACKBONE|DICT|INTERRES
   105   54   55 1    
   106   54  120 1    
   107   55   56 1    
   108   55   57 1    
   109   55  121 1    
   110   56  122 1    
   111   56  123 1    
   112   56  124 1    
   113   57   58 2    
   114   57   59 am   BACKBONE|DICT|INTERRES
   115   59   60 1    
   116   59  125 1    
   117   60   61 1    
   118   60   62 1    
   119   60  126 1    
   120   61  127 1    
   121   61  128 1    
   122   61  129 1    
   123   62   63 2    
   124   62   64 am   BACKBONE|DICT|INTERRES
   125   64   65 1    
   126   64  130 1    
   127   65   66 1    
   128   65   69 1    
   129   65  131 1    
   130   66   67 am   BACKBONE|DICT|INTERRES
   131   66   68 2    
   132   67  132 1    
   133   67  133 1    
   134   69   70 1    
   135   69  134 1    
   136   69  135 1    
   137   70   71 1    
   138   71  136 1    
   139   71  137 1    
@<TRIPOS>SUBSTRUCTURE
     1 UNK         1 GROUP             0       ****    0 ROOT    
