@<TRIPOS>MOLECULE
3R136
137   139    1
SMALL
USER_CHARGES


@<TRIPOS>ATOM
      1 CA         29.5061   25.5966    3.1902 C.3       0 UNK        -0.1979 
      2 C          29.0964   24.1370    3.3027 C.2       0 UNK         0.4864 
      3 O          28.2997   23.7934    4.1765 O.2       0 UNK        -0.5359 
      4 N          29.6363   23.2738    2.4309 N.am      1 UNK        -0.4318 
      5 CA         29.3869   21.8244    2.4364 C.3       1 UNK         0.0824 
      6 C6         30.4885   21.0345    1.6876 C.3       12 UNK        -0.0944 
      7 S7         32.1547   21.3391    2.3718 S.3       12 UNK        -0.2672 
      8 C8         33.0779   21.9138    0.9113 C.3       12 UNK         0.0333 
      9 C9         32.6865   23.3256    0.4987 C.ar      12 UNK        -0.0807 
     10 C10        33.2739   24.4308    1.1248 C.ar      12 UNK        -0.0894 
     11 C11        32.9435   25.7289    0.7234 C.ar      12 UNK        -0.0804 
     12 C12        32.0163   25.9167   -0.3039 C.ar      12 UNK        -0.0824 
     13 C13        31.4050   24.8215   -0.9194 C.ar      12 UNK        -0.0762 
     14 C14        31.7560   23.5280   -0.5258 C.ar      12 UNK        -0.0782 
     15 C15        30.3599   25.0353   -2.0046 C.3       12 UNK         0.0230 
     16 S16        28.6741   24.7513   -1.3765 S.3       12 UNK        -0.2608 
     17 C17        28.4786   26.1170   -0.1828 C.3       12 UNK        -0.0989 
     18 CA         27.5350   27.2347   -0.6813 C.3       5 UNK         0.0716 
     19 N          26.1823   26.7309   -0.9234 N.am      5 UNK        -0.4135 
     20 C          25.2956   27.3020   -1.7490 C.2       4 UNK         0.5031 
     21 O          25.5248   28.3351   -2.3806 O.2       4 UNK        -0.5229 
     22 CA         23.9373   26.6005   -1.9498 C.3       4 UNK         0.0329 
     23 CB         23.8880   25.9225   -3.3296 C.3       4 UNK        -0.2001 
     24 N          23.6352   25.5992   -0.9253 N.am      4 UNK        -0.4303 
     25 C          23.1735   25.8760    0.3015 C.2       3 UNK         0.5044 
     26 O          22.8846   27.0102    0.6840 O.2       3 UNK        -0.5152 
     27 CA         23.0093   24.6890    1.2725 C.3       3 UNK         0.0319 
     28 CB         21.5445   24.2231    1.3045 C.3       3 UNK        -0.2001 
     29 N          23.8757   23.5342    0.9930 N.am      3 UNK        -0.4354 
     30 C          25.2152   23.5629    0.9968 C.2       2 UNK         0.4964 
     31 O          25.8738   24.5915    1.1609 O.2       2 UNK        -0.5047 
     32 CA         25.9358   22.2361    0.7327 C.3       2 UNK         0.0288 
     33 CB         25.9376   21.9006   -0.7689 C.3       2 UNK        -0.2113 
     34 N          27.3132   22.3583    1.2030 N.am      2 UNK        -0.4145 
     35 C          27.9849   21.4408    1.9090 C.2       1 UNK         0.5006 
     36 O          27.5393   20.3191    2.1598 O.2       1 UNK        -0.5103 
     37 C          27.5164   28.3900    0.3374 C.2       5 UNK         0.5055 
     38 O          26.6806   28.4032    1.2445 O.2       5 UNK        -0.5220 
     39 N          28.4849   29.3019    0.2051 N.am      6 UNK        -0.4450 
     40 CA         28.7643   30.3973    1.1280 C.3       6 UNK         0.0367 
     41 CB         27.7412   31.5346    0.9413 C.3       6 UNK        -0.1929 
     42 C          30.1900   30.8949    0.8613 C.2       6 UNK         0.5070 
     43 O          30.7088   30.6937   -0.2405 O.2       6 UNK        -0.5237 
     44 N          30.7812   31.5571    1.8586 N.am      7 UNK        -0.4739 
     45 CA         32.0875   32.2092    1.8052 C.3       7 UNK         0.0276 
     46 CB         33.2175   31.1652    1.8893 C.3       7 UNK        -0.1927 
     47 C          32.1730   33.1871    2.9812 C.2       7 UNK         0.5013 
     48 O          31.4860   32.9834    3.9862 O.2       7 UNK        -0.5193 
     49 N          33.0454   34.1981    2.8700 N.am      8 UNK        -0.4253 
     50 CA         33.2753   35.2193    3.9032 C.3       8 UNK         0.0242 
     51 CB         34.2238   36.2975    3.3539 C.3       8 UNK        -0.2000 
     52 C          33.8126   34.6568    5.2336 C.2       8 UNK         0.4948 
     53 O          33.5096   35.2089    6.2914 O.2       8 UNK        -0.5275 
     54 N          34.5703   33.5546    5.1560 N.am      9 UNK        -0.4246 
     55 CA         35.0844   32.7978    6.3010 C.3       9 UNK         0.0261 
     56 CB         36.4370   32.1770    5.9062 C.3       9 UNK        -0.1959 
     57 C          34.1089   31.7099    6.7972 C.2       9 UNK         0.5033 
     58 O          34.4884   30.9291    7.6720 O.2       9 UNK        -0.5390 
     59 N          32.9040   31.6241    6.2059 N.am      10 UNK        -0.4215 
     60 CA         31.8521   30.6262    6.4586 C.3       10 UNK         0.0240 
     61 CB         31.2633   30.8026    7.8746 C.3       10 UNK        -0.1982 
     62 C          32.2790   29.1693    6.1751 C.2       10 UNK         0.4970 
     63 O          31.6477   28.2428    6.6858 O.2       10 UNK        -0.4916 
     64 N          33.3393   28.9987    5.3720 N.am      11 UNK        -0.4279 
     65 CA         33.9816   27.7209    5.0200 C.3       11 UNK         0.1003 
     66 C          34.6506   26.9894    6.2245 C.2       11 UNK         0.5709 
     67 N          34.9538   27.6735    7.3232 N.am      11 UNK        -0.7358 
     68 O          34.9344   25.7958    6.1547 O.2       11 UNK        -0.4999 
     69 C69        33.0698   26.7985    4.1597 C.3       12 UNK        -0.0954 
     70 S70        32.4864   27.6461    2.6518 S.3       12 UNK        -0.2268 
     71 C71        33.5811   26.9403    1.3841 C.3       12 UNK         0.0203 
     72 H72        30.2083   25.7568    2.3728 H         1 UNK         0.0888 
     73 H73        28.6314   26.2245    3.0217 H         1 UNK         0.0888 
     74 H74        29.9798   25.9235    4.1146 H         1 UNK         0.0888 
     75 H75        30.3136   23.5976    1.7535 H         1 UNK         0.3017 
     76 H76        29.4117   21.4977    3.4786 H         1 UNK         0.0873 
     77 H77        30.4680   21.2620    0.6219 H         1 UNK         0.0745 
     78 H78        30.3020   19.9615    1.7646 H         1 UNK         0.0745 
     79 H79        32.9305   21.2142    0.0869 H         1 UNK         0.0705 
     80 H80        34.1442   21.8866    1.1410 H         1 UNK         0.0705 
     81 H81        33.9925   24.2788    1.9187 H         1 UNK         0.1334 
     82 H82        31.7592   26.9217   -0.6105 H         1 UNK         0.1417 
     83 H83        31.2975   22.6815   -1.0186 H         1 UNK         0.1562 
     84 H84        30.5494   24.3503   -2.8322 H         1 UNK         0.0748 
     85 H85        30.4269   26.0422   -2.4198 H         1 UNK         0.0748 
     86 H86        29.4542   26.5326    0.0634 H         1 UNK         0.0940 
     87 H87        28.1020   25.6935    0.7464 H         1 UNK         0.0940 
     88 H88        27.9325   27.6186   -1.6238 H         1 UNK         0.0703 
     89 H89        25.9086   25.9280   -0.3682 H         1 UNK         0.3081 
     90 H90        23.1653   27.3726   -1.9232 H         1 UNK         0.0719 
     91 H91        24.0706   26.6447   -4.1268 H         1 UNK         0.0809 
     92 H92        24.6413   25.1389   -3.4220 H         1 UNK         0.0809 
     93 H93        22.9116   25.4758   -3.5185 H         1 UNK         0.0809 
     94 H94        23.8333   24.6362   -1.1540 H         1 UNK         0.2990 
     95 H95        23.2707   25.0557    2.2675 H         1 UNK         0.0690 
     96 H96        21.3863   23.4588    2.0658 H         1 UNK         0.0788 
     97 H97        21.2303   23.8127    0.3439 H         1 UNK         0.0788 
     98 H98        20.8753   25.0525    1.5388 H         1 UNK         0.0788 
     99 H99        23.4092   22.6530    0.8292 H         1 UNK         0.2993 
    100 H100       25.4162   21.4502    1.2856 H         1 UNK         0.0949 
    101 H101       26.4101   22.6872   -1.3583 H         1 UNK         0.0767 
    102 H102       26.4738   20.9716   -0.9639 H         1 UNK         0.0767 
    103 H103       24.9226   21.7725   -1.1468 H         1 UNK         0.0767 
    104 H104       27.7126   23.2816    1.0974 H         1 UNK         0.3013 
    105 H105       29.1650   29.2284   -0.5432 H         1 UNK         0.3121 
    106 H106       28.7149   30.0191    2.1517 H         1 UNK         0.0774 
    107 H107       27.9539   32.3687    1.6110 H         1 UNK         0.0815 
    108 H108       27.7544   31.9220   -0.0781 H         1 UNK         0.0815 
    109 H109       26.7266   31.2003    1.1584 H         1 UNK         0.0815 
    110 H110       30.2874   31.7140    2.7299 H         1 UNK         0.2987 
    111 H111       32.1667   32.7704    0.8714 H         1 UNK         0.0949 
    112 H112       33.1665   30.4520    1.0664 H         1 UNK         0.0806 
    113 H113       34.1985   31.6388    1.8408 H         1 UNK         0.0806 
    114 H114       33.1710   30.6005    2.8204 H         1 UNK         0.0806 
    115 H115       33.5780   34.2913    2.0163 H         1 UNK         0.3010 
    116 H116       32.3133   35.6898    4.1186 H         1 UNK         0.0829 
    117 H117       35.1981   35.8841    3.0903 H         1 UNK         0.0813 
    118 H118       34.3924   37.0821    4.0932 H         1 UNK         0.0813 
    119 H119       33.8098   36.7768    2.4665 H         1 UNK         0.0813 
    120 H120       34.7790   33.1866    4.2391 H         1 UNK         0.3038 
    121 H121       35.2559   33.4791    7.1371 H         1 UNK         0.0769 
    122 H122       37.1451   32.9413    5.5853 H         1 UNK         0.0811 
    123 H123       36.3314   31.4551    5.0956 H         1 UNK         0.0811 
    124 H124       36.8920   31.6553    6.7494 H         1 UNK         0.0811 
    125 H125       32.6646   32.3095    5.4960 H         1 UNK         0.3204 
    126 H126       31.0567   30.8432    5.7441 H         1 UNK         0.0748 
    127 H127       30.3845   30.1723    8.0168 H         1 UNK         0.0771 
    128 H128       31.9832   30.5350    8.6487 H         1 UNK         0.0771 
    129 H129       30.9511   31.8325    8.0480 H         1 UNK         0.0771 
    130 H130       33.7947   29.8235    5.0157 H         1 UNK         0.2980 
    131 H131       34.8256   27.9979    4.3876 H         1 UNK         0.0545 
    132 H132       35.3968   27.1972    8.0925 H         1 UNK         0.3459 
    133 H133       34.7393   28.6595    7.3955 H         1 UNK         0.3459 
    134 H134       32.2028   26.4749    4.7354 H         1 UNK         0.0616 
    135 H135       33.5946   25.8861    3.8732 H         1 UNK         0.0616 
    136 H136       34.5509   26.6881    1.8156 H         1 UNK         0.0634 
    137 H137       33.7758   27.7050    0.6306 H         1 UNK         0.0634 
@<TRIPOS>BOND
     1    1    2 1    
     2    1   72 1    
     3    1   73 1    
     4    1   74 1    
     5    2    3 2    
     6    2    4 am   BACKBONE|DICT|INTERRES
     7    4    5 1    
     8    4   75 1    
     9    5    6 1    
    10    5   35 1    
    11    5   76 1    
    12    6    7 1    
    13    6   77 1    
    14    6   78 1    
    15    7    8 1    
    16    8    9 1    
    17    8   79 1    
    18    8   80 1    
    19    9   10 ar   
    20    9   14 ar   
    21   10   11 ar   
    22   10   81 1    
    23   11   12 ar   
    24   11   71 1    
    25   12   13 ar   
    26   12   82 1    
    27   13   14 ar   
    28   13   15 1    
    29   14   83 1    
    30   15   16 1    
    31   15   84 1    
    32   15   85 1    
    33   16   17 1    
    34   17   18 1    
    35   17   86 1    
    36   17   87 1    
    37   18   19 1    
    38   18   37 1    
    39   18   88 1    
    40   19   20 am   BACKBONE|DICT|INTERRES
    41   19   89 1    
    42   20   21 2    
    43   20   22 1    
    44   22   23 1    
    45   22   24 1    
    46   22   90 1    
    47   23   91 1    
    48   23   92 1    
    49   23   93 1    
    50   24   25 am   BACKBONE|DICT|INTERRES
    51   24   94 1    
    52   25   26 2    
    53   25   27 1    
    54   27   28 1    
    55   27   29 1    
    56   27   95 1    
    57   28   96 1    
    58   28   97 1    
    59   28   98 1    
    60   29   30 am   BACKBONE|DICT|INTERRES
    61   29   99 1    
    62   30   31 2    
    63   30   32 1    
    64   32   33 1    
    65   32   34 1    
    66   32  100 1    
    67   33  101 1    
    68   33  102 1    
    69   33  103 1    
    70   34   35 am   BACKBONE|DICT|INTERRES
    71   34  104 1    
    72   35   36 2    
    73   37   38 2    
    74   37   39 am   BACKBONE|DICT|INTERRES
    75   39   40 1    
    76   39  105 1    
    77   40   41 1    
    78   40   42 1    
    79   40  106 1    
    80   41  107 1    
    81   41  108 1    
    82   41  109 1    
    83   42   43 2    
    84   42   44 am   BACKBONE|DICT|INTERRES
    85   44   45 1    
    86   44  110 1    
    87   45   46 1    
    88   45   47 1    
    89   45  111 1    
    90   46  112 1    
    91   46  113 1    
    92   46  114 1    
    93   47   48 2    
    94   47   49 am   BACKBONE|DICT|INTERRES
    95   49   50 1    
    96   49  115 1    
    97   50   51 1    
    98   50   52 1    
    99   50  116 1    
   100   51  117 1    
   101   51  118 1    
   102   51  119 1    
   103   52   53 2    
   104   52   54 am   BACKBONE|DICT|INTERRES
   105   54   55 1    
   106   54  120 1    
   107   55   56 1    
   108   55   57 1    
   109   55  121 1    
   110   56  122 1    
   111   56  123 1    
   112   56  124 1    
   113   57   58 2    
   114   57   59 am   BACKBONE|DICT|INTERRES
   115   59   60 1    
   116   59  125 1    
   117   60   61 1    
   118   60   62 1    
   119   60  126 1    
   120   61  127 1    
   121   61  128 1    
   122   61  129 1    
   123   62   63 2    
   124   62   64 am   BACKBONE|DICT|INTERRES
   125   64   65 1    
   126   64  130 1    
   127   65   66 1    
   128   65   69 1    
   129   65  131 1    
   130   66   67 am   BACKBONE|DICT|INTERRES
   131   66   68 2    
   132   67  132 1    
   133   67  133 1    
   134   69   70 1    
   135   69  134 1    
   136   69  135 1    
   137   70   71 1    
   138   71  136 1    
   139   71  137 1    
@<TRIPOS>SUBSTRUCTURE
     1 UNK         1 GROUP             0       ****    0 ROOT    
