@<TRIPOS>MOLECULE
3R136
137   139    1
SMALL
USER_CHARGES


@<TRIPOS>ATOM
      1 CA         27.9342   24.1447    2.2278 C.3       0 UNK        -0.1979 
      2 C          28.5529   23.5817    0.9571 C.2       0 UNK         0.4864 
      3 O          28.1048   22.5448    0.4673 O.2       0 UNK        -0.5359 
      4 N          29.5754   24.2601    0.4174 N.am      1 UNK        -0.4318 
      5 CA         30.2810   23.8674   -0.8118 C.3       1 UNK         0.0824 
      6 C6         31.6854   24.5147   -0.9029 C.3       12 UNK        -0.0944 
      7 S7         32.7876   23.9109    0.4207 S.3       12 UNK        -0.2672 
      8 C8         32.8452   25.3221    1.5684 C.3       12 UNK         0.0333 
      9 C9         32.7143   24.8571    3.0096 C.ar      12 UNK        -0.0807 
     10 C10        33.7941   24.2515    3.6571 C.ar      12 UNK        -0.0894 
     11 C11        33.6819   23.8244    4.9851 C.ar      12 UNK        -0.0804 
     12 C12        32.4749   24.0156    5.6675 C.ar      12 UNK        -0.0824 
     13 C13        31.3836   24.6104    5.0246 C.ar      12 UNK        -0.0762 
     14 C14        31.5108   25.0280    3.6974 C.ar      12 UNK        -0.0782 
     15 C15        30.0506   24.7722    5.7388 C.3       12 UNK         0.0230 
     16 S16        29.7142   26.5172    6.1402 S.3       12 UNK        -0.2608 
     17 C17        27.9854   26.7222    5.5821 C.3       12 UNK        -0.0989 
     18 CA         27.8866   27.5589    4.2800 C.3       5 UNK         0.0716 
     19 N          26.6617   27.2597    3.5333 N.am      5 UNK        -0.4135 
     20 C          26.3934   27.6837    2.2899 C.2       4 UNK         0.5031 
     21 O          27.1795   28.3484    1.6108 O.2       4 UNK        -0.5229 
     22 CA         25.0128   27.2739    1.7447 C.3       4 UNK         0.0329 
     23 CB         23.8873   28.1283    2.3647 C.3       4 UNK        -0.2001 
     24 N          24.9207   27.2420    0.2781 N.am      4 UNK        -0.4303 
     25 C          24.8787   28.2548   -0.5993 C.2       3 UNK         0.5044 
     26 O          24.9469   29.4459   -0.2971 O.2       3 UNK        -0.5152 
     27 CA         24.6941   27.8534   -2.0801 C.3       3 UNK         0.0319 
     28 CB         24.3714   29.0619   -2.9797 C.3       3 UNK        -0.2001 
     29 N          25.8541   27.1556   -2.6410 N.am      3 UNK        -0.4354 
     30 C          26.2498   25.9116   -2.3436 C.2       2 UNK         0.4964 
     31 O          25.6678   25.1867   -1.5342 O.2       2 UNK        -0.5047 
     32 CA         27.5118   25.3831   -3.0387 C.3       2 UNK         0.0288 
     33 CB         28.1290   26.3339   -4.0898 C.3       2 UNK        -0.2113 
     34 N          28.4785   25.0602   -1.9951 N.am      2 UNK        -0.4145 
     35 C          29.4566   24.1511   -2.0874 C.2       1 UNK         0.5006 
     36 O          29.7165   23.5322   -3.1211 O.2       1 UNK        -0.5103 
     37 C          27.9914   29.0690    4.5693 C.2       5 UNK         0.5055 
     38 O          26.9829   29.6992    4.8967 O.2       5 UNK        -0.5220 
     39 N          29.2027   29.6150    4.4145 N.am      6 UNK        -0.4450 
     40 CA         29.6170   31.0184    4.5572 C.3       6 UNK         0.0367 
     41 CB         29.2920   31.5791    5.9550 C.3       6 UNK        -0.1929 
     42 C          29.0971   31.9399    3.4411 C.2       6 UNK         0.5070 
     43 O          29.8265   32.8396    3.0249 O.2       6 UNK        -0.5237 
     44 N          27.8751   31.6917    2.9550 N.am      7 UNK        -0.4739 
     45 CA         27.2766   32.3486    1.7943 C.3       7 UNK         0.0276 
     46 CB         25.7871   31.9869    1.7147 C.3       7 UNK        -0.1927 
     47 C          28.0187   32.0036    0.4919 C.2       7 UNK         0.5013 
     48 O          28.3552   32.9173   -0.2629 O.2       7 UNK        -0.5193 
     49 N          28.3032   30.7104    0.2745 N.am      8 UNK        -0.4253 
     50 CA         29.2077   30.2464   -0.7783 C.3       8 UNK         0.0242 
     51 CB         28.8762   28.7946   -1.1621 C.3       8 UNK        -0.2000 
     52 C          30.6689   30.3801   -0.3263 C.2       8 UNK         0.4948 
     53 O          31.4411   31.1033   -0.9564 O.2       8 UNK        -0.5275 
     54 N          31.0078   29.6819    0.7628 N.am      9 UNK        -0.4246 
     55 CA         32.3208   29.6111    1.3981 C.3       9 UNK         0.0261 
     56 CB         33.3369   28.9050    0.4760 C.3       9 UNK        -0.1959 
     57 C          32.1554   28.8488    2.7183 C.2       9 UNK         0.5033 
     58 O          31.1138   28.2184    2.9270 O.2       9 UNK        -0.5390 
     59 N          33.1691   28.9133    3.5843 N.am      10 UNK        -0.4215 
     60 CA         33.2336   28.1925    4.8527 C.3       10 UNK         0.0240 
     61 CB         32.5381   28.9976    5.9658 C.3       10 UNK        -0.1982 
     62 C          34.6994   27.9382    5.2087 C.2       10 UNK         0.4970 
     63 O          35.5714   28.6954    4.7742 O.2       10 UNK        -0.4916 
     64 N          34.9307   26.9068    6.0266 N.am      11 UNK        -0.4279 
     65 CA         36.2379   26.5903    6.6230 C.3       11 UNK         0.1003 
     66 C          36.6370   27.5133    7.8133 C.2       11 UNK         0.5709 
     67 N          35.7508   28.3493    8.3426 N.am      11 UNK        -0.7358 
     68 O          37.7817   27.4774    8.2590 O.2       11 UNK        -0.4999 
     69 C69        36.3266   25.0943    7.0222 C.3       12 UNK        -0.0954 
     70 S70        36.4154   23.9946    5.5714 S.3       12 UNK        -0.2268 
     71 C71        34.8368   23.0872    5.6536 C.3       12 UNK         0.0203 
     72 H72        28.0608   23.4402    3.0491 H         1 UNK         0.0888 
     73 H73        28.3880   25.0910    2.5164 H         1 UNK         0.0888 
     74 H74        26.8673   24.3107    2.0823 H         1 UNK         0.0888 
     75 H75        29.9172   25.0944    0.8690 H         1 UNK         0.3017 
     76 H76        30.4196   22.7840   -0.7817 H         1 UNK         0.0873 
     77 H77        32.1619   24.2570   -1.8510 H         1 UNK         0.0745 
     78 H78        31.6224   25.6043   -0.8872 H         1 UNK         0.0745 
     79 H79        32.0522   26.0334    1.3366 H         1 UNK         0.0705 
     80 H80        33.7870   25.8565    1.4359 H         1 UNK         0.0705 
     81 H81        34.7197   24.0971    3.1192 H         1 UNK         0.1334 
     82 H82        32.3742   23.6745    6.6890 H         1 UNK         0.1417 
     83 H83        30.6733   25.5032    3.2079 H         1 UNK         0.1562 
     84 H84        30.0293   24.1888    6.6606 H         1 UNK         0.0748 
     85 H85        29.2678   24.3601    5.1020 H         1 UNK         0.0748 
     86 H86        27.4058   27.1756    6.3893 H         1 UNK         0.0940 
     87 H87        27.5418   25.7367    5.4358 H         1 UNK         0.0940 
     88 H88        28.7135   27.2769    3.6250 H         1 UNK         0.0703 
     89 H89        25.9432   26.7651    4.0406 H         1 UNK         0.3081 
     90 H90        24.8481   26.2409    2.0553 H         1 UNK         0.0719 
     91 H91        24.0048   29.1879    2.1386 H         1 UNK         0.0809 
     92 H92        22.9078   27.8164    2.0023 H         1 UNK         0.0809 
     93 H93        23.8730   28.0347    3.4512 H         1 UNK         0.0809 
     94 H94        24.9480   26.3133   -0.1341 H         1 UNK         0.2990 
     95 H95        23.8380   27.1765   -2.1230 H         1 UNK         0.0690 
     96 H96        24.1590   28.7512   -4.0029 H         1 UNK         0.0788 
     97 H97        25.1960   29.7756   -3.0086 H         1 UNK         0.0788 
     98 H98        23.4917   29.5951   -2.6165 H         1 UNK         0.0788 
     99 H99        26.4078   27.6796   -3.3028 H         1 UNK         0.2993 
    100 H100       27.2185   24.4590   -3.5420 H         1 UNK         0.0949 
    101 H101       28.4624   27.2747   -3.6545 H         1 UNK         0.0767 
    102 H102       28.9926   25.8754   -4.5720 H         1 UNK         0.0767 
    103 H103       27.4150   26.5637   -4.8819 H         1 UNK         0.0767 
    104 H104       28.2942   25.4719   -1.0915 H         1 UNK         0.3013 
    105 H105       29.9327   28.9983    4.0563 H         1 UNK         0.3121 
    106 H106       30.7035   31.0101    4.4590 H         1 UNK         0.0774 
    107 H107       29.7234   32.5728    6.0819 H         1 UNK         0.0815 
    108 H108       28.2186   31.6718    6.1209 H         1 UNK         0.0815 
    109 H109       29.7010   30.9448    6.7413 H         1 UNK         0.0815 
    110 H110       27.3391   30.9543    3.4015 H         1 UNK         0.2987 
    111 H111       27.3557   33.4283    1.9396 H         1 UNK         0.0949 
    112 H112       25.3316   32.3807    0.8050 H         1 UNK         0.0806 
    113 H113       25.6415   30.9074    1.7140 H         1 UNK         0.0806 
    114 H114       25.2347   32.3959    2.5606 H         1 UNK         0.0806 
    115 H115       27.9292   30.0042    0.9041 H         1 UNK         0.3010 
    116 H116       29.0706   30.8643   -1.6685 H         1 UNK         0.0829 
    117 H117       27.8611   28.7219   -1.5481 H         1 UNK         0.0813 
    118 H118       29.5540   28.4369   -1.9376 H         1 UNK         0.0813 
    119 H119       28.9600   28.1107   -0.3176 H         1 UNK         0.0813 
    120 H120       30.3078   29.1260    1.2403 H         1 UNK         0.3038 
    121 H121       32.6591   30.6245    1.6229 H         1 UNK         0.0769 
    122 H122       32.9663   27.9396    0.1321 H         1 UNK         0.0811 
    123 H123       34.2871   28.7316    0.9825 H         1 UNK         0.0811 
    124 H124       33.5562   29.5051   -0.4070 H         1 UNK         0.0811 
    125 H125       34.0195   29.4093    3.3450 H         1 UNK         0.3204 
    126 H126       32.7388   27.2269    4.7478 H         1 UNK         0.0748 
    127 H127       32.6442   28.5076    6.9342 H         1 UNK         0.0771 
    128 H128       32.9496   30.0035    6.0569 H         1 UNK         0.0771 
    129 H129       31.4703   29.0850    5.7814 H         1 UNK         0.0771 
    130 H130       34.1590   26.3265    6.3198 H         1 UNK         0.2980 
    131 H131       36.9992   26.7697    5.8611 H         1 UNK         0.0545 
    132 H132       36.0312   28.9416    9.1084 H         1 UNK         0.3459 
    133 H133       34.8097   28.3927    7.9897 H         1 UNK         0.3459 
    134 H134       35.4888   24.8152    7.6633 H         1 UNK         0.0616 
    135 H135       37.2284   24.9005    7.6061 H         1 UNK         0.0616 
    136 H136       34.6070   22.8444    6.6921 H         1 UNK         0.0634 
    137 H137       34.9678   22.1323    5.1429 H         1 UNK         0.0634 
@<TRIPOS>BOND
     1    1    2 1    
     2    1   72 1    
     3    1   73 1    
     4    1   74 1    
     5    2    3 2    
     6    2    4 am   BACKBONE|DICT|INTERRES
     7    4    5 1    
     8    4   75 1    
     9    5    6 1    
    10    5   35 1    
    11    5   76 1    
    12    6    7 1    
    13    6   77 1    
    14    6   78 1    
    15    7    8 1    
    16    8    9 1    
    17    8   79 1    
    18    8   80 1    
    19    9   10 ar   
    20    9   14 ar   
    21   10   11 ar   
    22   10   81 1    
    23   11   12 ar   
    24   11   71 1    
    25   12   13 ar   
    26   12   82 1    
    27   13   14 ar   
    28   13   15 1    
    29   14   83 1    
    30   15   16 1    
    31   15   84 1    
    32   15   85 1    
    33   16   17 1    
    34   17   18 1    
    35   17   86 1    
    36   17   87 1    
    37   18   19 1    
    38   18   37 1    
    39   18   88 1    
    40   19   20 am   BACKBONE|DICT|INTERRES
    41   19   89 1    
    42   20   21 2    
    43   20   22 1    
    44   22   23 1    
    45   22   24 1    
    46   22   90 1    
    47   23   91 1    
    48   23   92 1    
    49   23   93 1    
    50   24   25 am   BACKBONE|DICT|INTERRES
    51   24   94 1    
    52   25   26 2    
    53   25   27 1    
    54   27   28 1    
    55   27   29 1    
    56   27   95 1    
    57   28   96 1    
    58   28   97 1    
    59   28   98 1    
    60   29   30 am   BACKBONE|DICT|INTERRES
    61   29   99 1    
    62   30   31 2    
    63   30   32 1    
    64   32   33 1    
    65   32   34 1    
    66   32  100 1    
    67   33  101 1    
    68   33  102 1    
    69   33  103 1    
    70   34   35 am   BACKBONE|DICT|INTERRES
    71   34  104 1    
    72   35   36 2    
    73   37   38 2    
    74   37   39 am   BACKBONE|DICT|INTERRES
    75   39   40 1    
    76   39  105 1    
    77   40   41 1    
    78   40   42 1    
    79   40  106 1    
    80   41  107 1    
    81   41  108 1    
    82   41  109 1    
    83   42   43 2    
    84   42   44 am   BACKBONE|DICT|INTERRES
    85   44   45 1    
    86   44  110 1    
    87   45   46 1    
    88   45   47 1    
    89   45  111 1    
    90   46  112 1    
    91   46  113 1    
    92   46  114 1    
    93   47   48 2    
    94   47   49 am   BACKBONE|DICT|INTERRES
    95   49   50 1    
    96   49  115 1    
    97   50   51 1    
    98   50   52 1    
    99   50  116 1    
   100   51  117 1    
   101   51  118 1    
   102   51  119 1    
   103   52   53 2    
   104   52   54 am   BACKBONE|DICT|INTERRES
   105   54   55 1    
   106   54  120 1    
   107   55   56 1    
   108   55   57 1    
   109   55  121 1    
   110   56  122 1    
   111   56  123 1    
   112   56  124 1    
   113   57   58 2    
   114   57   59 am   BACKBONE|DICT|INTERRES
   115   59   60 1    
   116   59  125 1    
   117   60   61 1    
   118   60   62 1    
   119   60  126 1    
   120   61  127 1    
   121   61  128 1    
   122   61  129 1    
   123   62   63 2    
   124   62   64 am   BACKBONE|DICT|INTERRES
   125   64   65 1    
   126   64  130 1    
   127   65   66 1    
   128   65   69 1    
   129   65  131 1    
   130   66   67 am   BACKBONE|DICT|INTERRES
   131   66   68 2    
   132   67  132 1    
   133   67  133 1    
   134   69   70 1    
   135   69  134 1    
   136   69  135 1    
   137   70   71 1    
   138   71  136 1    
   139   71  137 1    
@<TRIPOS>SUBSTRUCTURE
     1 UNK         1 GROUP             0       ****    0 ROOT    
