@<TRIPOS>MOLECULE
3R136
137   139    1
SMALL
USER_CHARGES


@<TRIPOS>ATOM
      1 CA         33.6311   23.6132   -0.8079 C.3       0 UNK        -0.1979 
      2 C          32.5608   24.6913   -0.8935 C.2       0 UNK         0.4864 
      3 O          32.7994   25.7455   -1.4845 O.2       0 UNK        -0.5359 
      4 N          31.3877   24.4372   -0.3021 N.am      1 UNK        -0.4318 
      5 CA         30.2202   25.3187   -0.3478 C.3       1 UNK         0.0824 
      6 C6         29.2872   25.1091    0.8736 C.3       12 UNK        -0.0944 
      7 S7         28.7864   23.3841    1.2160 S.3       12 UNK        -0.2672 
      8 C8         29.9544   22.8770    2.5261 C.3       12 UNK         0.0333 
      9 C9         29.7211   23.6118    3.8395 C.ar      12 UNK        -0.0807 
     10 C10        30.5748   24.6491    4.2298 C.ar      12 UNK        -0.0894 
     11 C11        30.3674   25.3312    5.4346 C.ar      12 UNK        -0.0804 
     12 C12        29.2765   24.9814    6.2354 C.ar      12 UNK        -0.0824 
     13 C13        28.4108   23.9521    5.8542 C.ar      12 UNK        -0.0762 
     14 C14        28.6540   23.2515    4.6680 C.ar      12 UNK        -0.0782 
     15 C15        27.1937   23.6263    6.7101 C.3       12 UNK         0.0230 
     16 S16        25.6217   23.9765    5.8509 S.3       12 UNK        -0.2608 
     17 C17        25.8233   25.7169    5.3192 C.3       12 UNK        -0.0989 
     18 CA         26.2913   25.8268    3.8401 C.3       5 UNK         0.0716 
     19 N          25.4396   25.0918    2.8991 N.am      5 UNK        -0.4135 
     20 C          24.1771   25.3672    2.5460 C.2       4 UNK         0.5031 
     21 O          23.5127   26.3023    2.9972 O.2       4 UNK        -0.5229 
     22 CA         23.5773   24.4409    1.4653 C.3       4 UNK         0.0329 
     23 CB         22.0764   24.1972    1.7059 C.3       4 UNK        -0.2001 
     24 N          23.7658   24.9121    0.0837 N.am      4 UNK        -0.4303 
     25 C          24.9033   25.3583   -0.4682 C.2       3 UNK         0.5044 
     26 O          25.9618   25.4981    0.1493 O.2       3 UNK        -0.5152 
     27 CA         24.8740   25.7067   -1.9633 C.3       3 UNK         0.0319 
     28 CB         23.8606   26.8193   -2.2923 C.3       3 UNK        -0.2001 
     29 N          26.2227   26.1364   -2.3134 N.am      3 UNK        -0.4354 
     30 C          26.8389   26.0261   -3.4904 C.2       2 UNK         0.4964 
     31 O          26.2954   25.6221   -4.5190 O.2       2 UNK        -0.5047 
     32 CA         28.3208   26.4370   -3.5195 C.3       2 UNK         0.0288 
     33 CB         28.4611   27.8846   -4.0183 C.3       2 UNK        -0.2113 
     34 N          28.9721   26.3245   -2.2080 N.am      2 UNK        -0.4145 
     35 C          29.4987   25.1975   -1.7094 C.2       1 UNK         0.5006 
     36 O          29.4544   24.1090   -2.2901 O.2       1 UNK        -0.5103 
     37 C          26.6042   27.2729    3.3885 C.2       5 UNK         0.5055 
     38 O          26.8686   28.1338    4.2300 O.2       5 UNK        -0.5220 
     39 N          26.6029   27.5120    2.0696 N.am      6 UNK        -0.4450 
     40 CA         26.9525   28.7819    1.4387 C.3       6 UNK         0.0367 
     41 CB         25.9212   29.0972    0.3411 C.3       6 UNK        -0.1929 
     42 C          28.3756   28.6762    0.8744 C.2       6 UNK         0.5070 
     43 O          28.5510   28.3369   -0.2981 O.2       6 UNK        -0.5237 
     44 N          29.3690   28.9251    1.7313 N.am      7 UNK        -0.4739 
     45 CA         30.7844   29.0134    1.3683 C.3       7 UNK         0.0276 
     46 CB         31.6053   28.1583    2.3459 C.3       7 UNK        -0.1927 
     47 C          31.2455   30.4754    1.4426 C.2       7 UNK         0.5013 
     48 O          30.6268   31.2819    2.1429 O.2       7 UNK        -0.5193 
     49 N          32.3417   30.7824    0.7401 N.am      8 UNK        -0.4253 
     50 CA         33.0150   32.0798    0.7963 C.3       8 UNK         0.0242 
     51 CB         33.8928   32.2442   -0.4554 C.3       8 UNK        -0.2000 
     52 C          33.8713   32.1971    2.0673 C.2       8 UNK         0.4948 
     53 O          34.4357   31.1943    2.5155 O.2       8 UNK        -0.5275 
     54 N          33.9836   33.4272    2.5894 N.am      9 UNK        -0.4246 
     55 CA         34.7678   33.8157    3.7696 C.3       9 UNK         0.0261 
     56 CB         36.2792   33.7465    3.4474 C.3       9 UNK        -0.1959 
     57 C          34.3637   33.0265    5.0341 C.2       9 UNK         0.5033 
     58 O          33.1880   32.6890    5.1945 O.2       9 UNK        -0.5390 
     59 N          35.3319   32.7289    5.9092 N.am      10 UNK        -0.4215 
     60 CA         35.1615   31.9052    7.1082 C.3       10 UNK         0.0240 
     61 CB         36.2124   32.3247    8.1544 C.3       10 UNK        -0.1982 
     62 C          35.2276   30.4038    6.7622 C.2       10 UNK         0.4970 
     63 O          36.0720   29.6872    7.3026 O.2       10 UNK        -0.4916 
     64 N          34.3453   29.9655    5.8542 N.am      11 UNK        -0.4279 
     65 CA         34.2669   28.6008    5.3124 C.3       11 UNK         0.1003 
     66 C          35.5385   28.2049    4.5032 C.2       11 UNK         0.5709 
     67 N          35.9251   29.0021    3.5154 N.am      11 UNK        -0.7358 
     68 O          36.1863   27.1932    4.7637 O.2       11 UNK        -0.4999 
     69 C69        33.8302   27.5676    6.3926 C.3       12 UNK        -0.0954 
     70 S70        33.0537   26.0749    5.6869 S.3       12 UNK        -0.2268 
     71 C71        31.2840   26.4716    5.8683 C.3       12 UNK         0.0203 
     72 H72        33.9096   23.2814   -1.8078 H         1 UNK         0.0888 
     73 H73        34.5216   24.0068   -0.3184 H         1 UNK         0.0888 
     74 H74        33.2910   22.7443   -0.2446 H         1 UNK         0.0888 
     75 H75        31.2193   23.5315    0.1101 H         1 UNK         0.3017 
     76 H76        30.5886   26.3444   -0.2822 H         1 UNK         0.0873 
     77 H77        29.7642   25.5161    1.7620 H         1 UNK         0.0745 
     78 H78        28.3845   25.7037    0.7555 H         1 UNK         0.0745 
     79 H79        29.8449   21.8044    2.6928 H         1 UNK         0.0705 
     80 H80        30.9787   23.0241    2.1820 H         1 UNK         0.0705 
     81 H81        31.4046   24.9264    3.5945 H         1 UNK         0.1334 
     82 H82        29.0916   25.5227    7.1535 H         1 UNK         0.1417 
     83 H83        27.9847   22.4564    4.3676 H         1 UNK         0.1562 
     84 H84        27.2142   24.1862    7.6465 H         1 UNK         0.0748 
     85 H85        27.2201   22.5709    6.9843 H         1 UNK         0.0748 
     86 H86        26.5278   26.2119    5.9899 H         1 UNK         0.0940 
     87 H87        24.8700   26.2309    5.4523 H         1 UNK         0.0940 
     88 H88        27.2594   25.3367    3.7676 H         1 UNK         0.0703 
     89 H89        25.9053   24.3429    2.4055 H         1 UNK         0.3081 
     90 H90        24.0793   23.4743    1.5432 H         1 UNK         0.0719 
     91 H91        21.4918   25.1073    1.5644 H         1 UNK         0.0809 
     92 H92        21.6825   23.4363    1.0318 H         1 UNK         0.0809 
     93 H93        21.8958   23.8496    2.7241 H         1 UNK         0.0809 
     94 H94        22.9503   24.8559   -0.5088 H         1 UNK         0.2990 
     95 H95        24.6264   24.8004   -2.5197 H         1 UNK         0.0690 
     96 H96        23.9125   27.1013   -3.3441 H         1 UNK         0.0788 
     97 H97        24.0330   27.7173   -1.6994 H         1 UNK         0.0788 
     98 H98        22.8381   26.4932   -2.1002 H         1 UNK         0.0788 
     99 H99        26.7767   26.3953   -1.5055 H         1 UNK         0.2993 
    100 H100       28.8306   25.7795   -4.2273 H         1 UNK         0.0949 
    101 H101       28.0004   28.0074   -4.9996 H         1 UNK         0.0767 
    102 H102       27.9818   28.5923   -3.3400 H         1 UNK         0.0767 
    103 H103       29.5089   28.1701   -4.1144 H         1 UNK         0.0767 
    104 H104       28.9786   27.1646   -1.6296 H         1 UNK         0.3013 
    105 H105       26.4003   26.7395    1.4367 H         1 UNK         0.3121 
    106 H106       26.9258   29.5970    2.1651 H         1 UNK         0.0774 
    107 H107       26.1388   30.0556   -0.1318 H         1 UNK         0.0815 
    108 H108       25.9215   28.3422   -0.4436 H         1 UNK         0.0815 
    109 H109       24.9123   29.1554    0.7495 H         1 UNK         0.0815 
    110 H110       29.1355   29.2361    2.6649 H         1 UNK         0.2987 
    111 H111       30.9493   28.6511    0.3514 H         1 UNK         0.0949 
    112 H112       32.6693   28.1939    2.1071 H         1 UNK         0.0806 
    113 H113       31.4876   28.5156    3.3678 H         1 UNK         0.0806 
    114 H114       31.3052   27.1129    2.3187 H         1 UNK         0.0806 
    115 H115       32.8216   30.0513    0.2356 H         1 UNK         0.3010 
    116 H116       32.2598   32.8692    0.7993 H         1 UNK         0.0829 
    117 H117       33.2999   32.1801   -1.3681 H         1 UNK         0.0813 
    118 H118       34.3890   33.2157   -0.4603 H         1 UNK         0.0813 
    119 H119       34.6716   31.4818   -0.5057 H         1 UNK         0.0813 
    120 H120       33.4551   34.1738    2.1600 H         1 UNK         0.3038 
    121 H121       34.5180   34.8580    3.9726 H         1 UNK         0.0769 
    122 H122       36.6239   32.7182    3.3274 H         1 UNK         0.0811 
    123 H123       36.8794   34.2133    4.2292 H         1 UNK         0.0811 
    124 H124       36.5063   34.2772    2.5226 H         1 UNK         0.0811 
    125 H125       36.2763   33.0105    5.6883 H         1 UNK         0.3204 
    126 H126       34.1753   32.0940    7.5383 H         1 UNK         0.0748 
    127 H127       36.1164   33.3799    8.4112 H         1 UNK         0.0771 
    128 H128       36.0924   31.7572    9.0783 H         1 UNK         0.0771 
    129 H129       37.2296   32.1572    7.7977 H         1 UNK         0.0771 
    130 H130       33.7229   30.6490    5.4378 H         1 UNK         0.2980 
    131 H131       33.4666   28.6484    4.5759 H         1 UNK         0.0545 
    132 H132       36.7489   28.7635    2.9881 H         1 UNK         0.3459 
    133 H133       35.3814   29.8237    3.2546 H         1 UNK         0.3459 
    134 H134       34.6796   27.2638    7.0066 H         1 UNK         0.0616 
    135 H135       33.1208   28.0254    7.0835 H         1 UNK         0.0616 
    136 H136       31.0965   26.7271    6.9124 H         1 UNK         0.0634 
    137 H137       31.0457   27.3600    5.2853 H         1 UNK         0.0634 
@<TRIPOS>BOND
     1    1    2 1    
     2    1   72 1    
     3    1   73 1    
     4    1   74 1    
     5    2    3 2    
     6    2    4 am   BACKBONE|DICT|INTERRES
     7    4    5 1    
     8    4   75 1    
     9    5    6 1    
    10    5   35 1    
    11    5   76 1    
    12    6    7 1    
    13    6   77 1    
    14    6   78 1    
    15    7    8 1    
    16    8    9 1    
    17    8   79 1    
    18    8   80 1    
    19    9   10 ar   
    20    9   14 ar   
    21   10   11 ar   
    22   10   81 1    
    23   11   12 ar   
    24   11   71 1    
    25   12   13 ar   
    26   12   82 1    
    27   13   14 ar   
    28   13   15 1    
    29   14   83 1    
    30   15   16 1    
    31   15   84 1    
    32   15   85 1    
    33   16   17 1    
    34   17   18 1    
    35   17   86 1    
    36   17   87 1    
    37   18   19 1    
    38   18   37 1    
    39   18   88 1    
    40   19   20 am   BACKBONE|DICT|INTERRES
    41   19   89 1    
    42   20   21 2    
    43   20   22 1    
    44   22   23 1    
    45   22   24 1    
    46   22   90 1    
    47   23   91 1    
    48   23   92 1    
    49   23   93 1    
    50   24   25 am   BACKBONE|DICT|INTERRES
    51   24   94 1    
    52   25   26 2    
    53   25   27 1    
    54   27   28 1    
    55   27   29 1    
    56   27   95 1    
    57   28   96 1    
    58   28   97 1    
    59   28   98 1    
    60   29   30 am   BACKBONE|DICT|INTERRES
    61   29   99 1    
    62   30   31 2    
    63   30   32 1    
    64   32   33 1    
    65   32   34 1    
    66   32  100 1    
    67   33  101 1    
    68   33  102 1    
    69   33  103 1    
    70   34   35 am   BACKBONE|DICT|INTERRES
    71   34  104 1    
    72   35   36 2    
    73   37   38 2    
    74   37   39 am   BACKBONE|DICT|INTERRES
    75   39   40 1    
    76   39  105 1    
    77   40   41 1    
    78   40   42 1    
    79   40  106 1    
    80   41  107 1    
    81   41  108 1    
    82   41  109 1    
    83   42   43 2    
    84   42   44 am   BACKBONE|DICT|INTERRES
    85   44   45 1    
    86   44  110 1    
    87   45   46 1    
    88   45   47 1    
    89   45  111 1    
    90   46  112 1    
    91   46  113 1    
    92   46  114 1    
    93   47   48 2    
    94   47   49 am   BACKBONE|DICT|INTERRES
    95   49   50 1    
    96   49  115 1    
    97   50   51 1    
    98   50   52 1    
    99   50  116 1    
   100   51  117 1    
   101   51  118 1    
   102   51  119 1    
   103   52   53 2    
   104   52   54 am   BACKBONE|DICT|INTERRES
   105   54   55 1    
   106   54  120 1    
   107   55   56 1    
   108   55   57 1    
   109   55  121 1    
   110   56  122 1    
   111   56  123 1    
   112   56  124 1    
   113   57   58 2    
   114   57   59 am   BACKBONE|DICT|INTERRES
   115   59   60 1    
   116   59  125 1    
   117   60   61 1    
   118   60   62 1    
   119   60  126 1    
   120   61  127 1    
   121   61  128 1    
   122   61  129 1    
   123   62   63 2    
   124   62   64 am   BACKBONE|DICT|INTERRES
   125   64   65 1    
   126   64  130 1    
   127   65   66 1    
   128   65   69 1    
   129   65  131 1    
   130   66   67 am   BACKBONE|DICT|INTERRES
   131   66   68 2    
   132   67  132 1    
   133   67  133 1    
   134   69   70 1    
   135   69  134 1    
   136   69  135 1    
   137   70   71 1    
   138   71  136 1    
   139   71  137 1    
@<TRIPOS>SUBSTRUCTURE
     1 UNK         1 GROUP             0       ****    0 ROOT    
