@<TRIPOS>MOLECULE
3R136
137   139    1
SMALL
USER_CHARGES


@<TRIPOS>ATOM
      1 CA         29.1392   26.5539    2.8101 C.3       0 UNK        -0.1979 
      2 C          28.7361   25.0959    2.9300 C.2       0 UNK         0.4864 
      3 O          27.5822   24.8096    3.2494 O.2       0 UNK        -0.5359 
      4 N          29.6677   24.1663    2.6698 N.am      1 UNK        -0.4318 
      5 CA         29.4732   22.7223    2.8664 C.3       1 UNK         0.0824 
      6 C6         30.8077   21.9360    2.7894 C.3       12 UNK        -0.0944 
      7 S7         31.5080   21.7392    1.1117 S.3       12 UNK        -0.2672 
      8 C8         32.9867   22.8007    1.1581 C.3       12 UNK         0.0333 
      9 C9         32.6730   24.2623    0.8658 C.ar      12 UNK        -0.0807 
     10 C10        33.0758   25.2635    1.7552 C.ar      12 UNK        -0.0894 
     11 C11        32.8587   26.6118    1.4522 C.ar      12 UNK        -0.0804 
     12 C12        32.2234   26.9540    0.2538 C.ar      12 UNK        -0.0824 
     13 C13        31.8186   25.9625   -0.6455 C.ar      12 UNK        -0.0762 
     14 C14        32.0463   24.6199   -0.3329 C.ar      12 UNK        -0.0782 
     15 C15        31.1809   26.3363   -1.9778 C.3       12 UNK         0.0230 
     16 S16        29.3746   26.1157   -1.9579 S.3       12 UNK        -0.2608 
     17 C17        28.8659   27.4441   -0.8207 C.3       12 UNK        -0.0989 
     18 CA         27.6249   28.2320   -1.3050 C.3       5 UNK         0.0716 
     19 N          26.4744   27.3438   -1.4837 N.am      5 UNK        -0.4135 
     20 C          25.3201   27.6498   -2.0890 C.2       4 UNK         0.5031 
     21 O          25.1096   28.7150   -2.6694 O.2       4 UNK        -0.5229 
     22 CA         24.1965   26.5979   -2.0006 C.3       4 UNK         0.0329 
     23 CB         24.1133   25.7928   -3.3072 C.3       4 UNK        -0.2001 
     24 N          24.3331   25.6647   -0.8739 N.am      4 UNK        -0.4303 
     25 C          24.3605   25.9867    0.4268 C.2       3 UNK         0.5044 
     26 O          24.2646   27.1427    0.8399 O.2       3 UNK        -0.5152 
     27 CA         24.5984   24.8458    1.4330 C.3       3 UNK         0.0319 
     28 CB         23.2966   24.0762    1.7295 C.3       3 UNK        -0.2001 
     29 N          25.7047   23.9434    1.0717 N.am      3 UNK        -0.4354 
     30 C          25.7845   23.0732    0.0499 C.2       2 UNK         0.4964 
     31 O          24.8698   22.8924   -0.7551 O.2       2 UNK        -0.5047 
     32 CA         27.1073   22.3104   -0.1599 C.3       2 UNK         0.0288 
     33 CB         27.6433   22.5325   -1.5853 C.3       2 UNK        -0.2113 
     34 N          28.1504   22.6943    0.7924 N.am      2 UNK        -0.4145 
     35 C          28.3636   22.1097    1.9797 C.2       1 UNK         0.5006 
     36 O          27.7142   21.1489    2.3967 O.2       1 UNK        -0.5103 
     37 C          27.3519   29.4004   -0.3277 C.2       5 UNK         0.5055 
     38 O          28.1475   30.3402   -0.3095 O.2       5 UNK        -0.5220 
     39 N          26.2800   29.3169    0.4802 N.am      6 UNK        -0.4450 
     40 CA         25.9298   30.2067    1.5915 C.3       6 UNK         0.0367 
     41 CB         25.6859   31.6613    1.1270 C.3       6 UNK        -0.1929 
     42 C          26.9522   30.0654    2.7315 C.2       6 UNK         0.5070 
     43 O          26.8530   29.1081    3.4988 O.2       6 UNK        -0.5237 
     44 N          27.9158   30.9867    2.8205 N.am      7 UNK        -0.4739 
     45 CA         29.0213   30.9598    3.7734 C.3       7 UNK         0.0276 
     46 CB         28.5446   31.4256    5.1630 C.3       7 UNK        -0.1927 
     47 C          30.1534   31.8539    3.2561 C.2       7 UNK         0.5013 
     48 O          29.9100   32.7531    2.4465 O.2       7 UNK        -0.5193 
     49 N          31.3600   31.6064    3.7672 N.am      8 UNK        -0.4253 
     50 CA         32.5842   32.3672    3.5419 C.3       8 UNK         0.0242 
     51 CB         33.2295   31.9485    2.2080 C.3       8 UNK        -0.2000 
     52 C          33.5155   32.0857    4.7274 C.2       8 UNK         0.4948 
     53 O          33.2353   31.1790    5.5158 O.2       8 UNK        -0.5275 
     54 N          34.6270   32.8259    4.8294 N.am      9 UNK        -0.4246 
     55 CA         35.6044   32.7308    5.9269 C.3       9 UNK         0.0261 
     56 CB         36.7183   33.7663    5.7001 C.3       9 UNK        -0.1959 
     57 C          36.2139   31.3303    6.1539 C.2       9 UNK         0.5033 
     58 O          36.6495   31.0363    7.2679 O.2       9 UNK        -0.5390 
     59 N          36.2217   30.4941    5.1083 N.am      10 UNK        -0.4215 
     60 CA         36.6844   29.1069    5.1393 C.3       10 UNK         0.0240 
     61 CB         37.1253   28.7104    3.7190 C.3       10 UNK        -0.1982 
     62 C          35.6483   28.1014    5.6848 C.2       10 UNK         0.4970 
     63 O          36.0229   26.9468    5.8963 O.2       10 UNK        -0.4916 
     64 N          34.3855   28.5100    5.8772 N.am      11 UNK        -0.4279 
     65 CA         33.2743   27.6103    6.2423 C.3       11 UNK         0.1003 
     66 C          32.2141   28.2126    7.2057 C.2       11 UNK         0.5709 
     67 N          32.1580   29.5189    7.4229 N.am      11 UNK        -0.7358 
     68 O          31.4401   27.4666    7.8011 O.2       11 UNK        -0.4999 
     69 C69        32.6319   26.9313    4.9995 C.3       12 UNK        -0.0954 
     70 S70        32.1573   28.1122    3.6863 S.3       12 UNK        -0.2268 
     71 C71        33.3608   27.7065    2.3836 C.3       12 UNK         0.0203 
     72 H72        30.0065   26.6807    2.1642 H         1 UNK         0.0888 
     73 H73        28.3174   27.1414    2.4040 H         1 UNK         0.0888 
     74 H74        29.3767   26.9548    3.7948 H         1 UNK         0.0888 
     75 H75        30.5921   24.4493    2.3732 H         1 UNK         0.3017 
     76 H76        29.1135   22.6141    3.8923 H         1 UNK         0.0873 
     77 H77        31.5473   22.3973    3.4456 H         1 UNK         0.0745 
     78 H78        30.6570   20.9329    3.1928 H         1 UNK         0.0745 
     79 H79        33.6873   22.4449    0.4016 H         1 UNK         0.0705 
     80 H80        33.4942   22.6844    2.1169 H         1 UNK         0.0705 
     81 H81        33.5894   24.9945    2.6674 H         1 UNK         0.1334 
     82 H82        32.0672   27.9963    0.0113 H         1 UNK         0.1417 
     83 H83        31.7505   23.8505   -1.0337 H         1 UNK         0.1562 
     84 H84        31.6003   25.7107   -2.7672 H         1 UNK         0.0748 
     85 H85        31.4218   27.3652   -2.2502 H         1 UNK         0.0748 
     86 H86        29.7059   28.1249   -0.6712 H         1 UNK         0.0940 
     87 H87        28.6706   26.9841    0.1453 H         1 UNK         0.0940 
     88 H88        27.8548   28.6765   -2.2757 H         1 UNK         0.0703 
     89 H89        26.5594   26.4257   -1.0757 H         1 UNK         0.3081 
     90 H90        23.2574   27.1385   -1.8666 H         1 UNK         0.0719 
     91 H91        25.0168   25.2055   -3.4768 H         1 UNK         0.0809 
     92 H92        23.2651   25.1079   -3.2980 H         1 UNK         0.0809 
     93 H93        23.9858   26.4526   -4.1666 H         1 UNK         0.0809 
     94 H94        24.4235   24.6764   -1.0993 H         1 UNK         0.2990 
     95 H95        24.9103   25.3193    2.3656 H         1 UNK         0.0690 
     96 H96        23.4553   23.3087    2.4871 H         1 UNK         0.0788 
     97 H97        22.8912   23.5917    0.8410 H         1 UNK         0.0788 
     98 H98        22.5268   24.7502    2.1076 H         1 UNK         0.0788 
     99 H99        26.5104   24.0263    1.6843 H         1 UNK         0.2993 
    100 H100       26.8849   21.2473   -0.0446 H         1 UNK         0.0949 
    101 H101       27.8171   23.5885   -1.7915 H         1 UNK         0.0767 
    102 H102       28.5816   22.0003   -1.7446 H         1 UNK         0.0767 
    103 H103       26.9368   22.1681   -2.3324 H         1 UNK         0.0767 
    104 H104       28.7440   23.4688    0.5321 H         1 UNK         0.3013 
    105 H105       25.6887   28.4937    0.4115 H         1 UNK         0.3121 
    106 H106       24.9825   29.8345    1.9854 H         1 UNK         0.0774 
    107 H107       25.3805   32.2881    1.9657 H         1 UNK         0.0815 
    108 H108       26.5679   32.1219    0.6830 H         1 UNK         0.0815 
    109 H109       24.8867   31.7039    0.3871 H         1 UNK         0.0815 
    110 H110       27.9869   31.7108    2.1149 H         1 UNK         0.2987 
    111 H111       29.4003   29.9369    3.8412 H         1 UNK         0.0949 
    112 H112       28.1426   32.4389    5.1298 H         1 UNK         0.0806 
    113 H113       27.7692   30.7708    5.5606 H         1 UNK         0.0806 
    114 H114       29.3648   31.4219    5.8822 H         1 UNK         0.0806 
    115 H115       31.4721   30.8802    4.4657 H         1 UNK         0.3010 
    116 H116       32.3497   33.4336    3.5286 H         1 UNK         0.0829 
    117 H117       32.5471   32.0994    1.3713 H         1 UNK         0.0813 
    118 H118       34.1257   32.5335    1.9992 H         1 UNK         0.0813 
    119 H119       33.5182   30.8981    2.2161 H         1 UNK         0.0813 
    120 H120       34.7968   33.5424    4.1376 H         1 UNK         0.3038 
    121 H121       35.0777   32.9953    6.8462 H         1 UNK         0.0769 
    122 H122       37.2599   33.5796    4.7719 H         1 UNK         0.0811 
    123 H123       37.4465   33.7420    6.5123 H         1 UNK         0.0811 
    124 H124       36.3182   34.7796    5.6594 H         1 UNK         0.0811 
    125 H125       35.8424   30.8282    4.2349 H         1 UNK         0.3204 
    126 H126       37.5585   29.0455    5.7911 H         1 UNK         0.0748 
    127 H127       37.4864   27.6813    3.6900 H         1 UNK         0.0771 
    128 H128       36.3069   28.7897    3.0031 H         1 UNK         0.0771 
    129 H129       37.9394   29.3445    3.3671 H         1 UNK         0.0771 
    130 H130       34.1303   29.4761    5.7012 H         1 UNK         0.2980 
    131 H131       33.7019   26.8049    6.8425 H         1 UNK         0.0545 
    132 H132       32.7030   30.1684    6.8616 H         1 UNK         0.3459 
    133 H133       31.4755   29.8741    8.0721 H         1 UNK         0.3459 
    134 H134       31.7505   26.3505    5.2770 H         1 UNK         0.0616 
    135 H135       33.3352   26.2041    4.5958 H         1 UNK         0.0616 
    136 H136       34.3122   27.4159    2.8302 H         1 UNK         0.0634 
    137 H137       33.5664   28.6086    1.8076 H         1 UNK         0.0634 
@<TRIPOS>BOND
     1    1    2 1    
     2    1   72 1    
     3    1   73 1    
     4    1   74 1    
     5    2    3 2    
     6    2    4 am   BACKBONE|DICT|INTERRES
     7    4    5 1    
     8    4   75 1    
     9    5    6 1    
    10    5   35 1    
    11    5   76 1    
    12    6    7 1    
    13    6   77 1    
    14    6   78 1    
    15    7    8 1    
    16    8    9 1    
    17    8   79 1    
    18    8   80 1    
    19    9   10 ar   
    20    9   14 ar   
    21   10   11 ar   
    22   10   81 1    
    23   11   12 ar   
    24   11   71 1    
    25   12   13 ar   
    26   12   82 1    
    27   13   14 ar   
    28   13   15 1    
    29   14   83 1    
    30   15   16 1    
    31   15   84 1    
    32   15   85 1    
    33   16   17 1    
    34   17   18 1    
    35   17   86 1    
    36   17   87 1    
    37   18   19 1    
    38   18   37 1    
    39   18   88 1    
    40   19   20 am   BACKBONE|DICT|INTERRES
    41   19   89 1    
    42   20   21 2    
    43   20   22 1    
    44   22   23 1    
    45   22   24 1    
    46   22   90 1    
    47   23   91 1    
    48   23   92 1    
    49   23   93 1    
    50   24   25 am   BACKBONE|DICT|INTERRES
    51   24   94 1    
    52   25   26 2    
    53   25   27 1    
    54   27   28 1    
    55   27   29 1    
    56   27   95 1    
    57   28   96 1    
    58   28   97 1    
    59   28   98 1    
    60   29   30 am   BACKBONE|DICT|INTERRES
    61   29   99 1    
    62   30   31 2    
    63   30   32 1    
    64   32   33 1    
    65   32   34 1    
    66   32  100 1    
    67   33  101 1    
    68   33  102 1    
    69   33  103 1    
    70   34   35 am   BACKBONE|DICT|INTERRES
    71   34  104 1    
    72   35   36 2    
    73   37   38 2    
    74   37   39 am   BACKBONE|DICT|INTERRES
    75   39   40 1    
    76   39  105 1    
    77   40   41 1    
    78   40   42 1    
    79   40  106 1    
    80   41  107 1    
    81   41  108 1    
    82   41  109 1    
    83   42   43 2    
    84   42   44 am   BACKBONE|DICT|INTERRES
    85   44   45 1    
    86   44  110 1    
    87   45   46 1    
    88   45   47 1    
    89   45  111 1    
    90   46  112 1    
    91   46  113 1    
    92   46  114 1    
    93   47   48 2    
    94   47   49 am   BACKBONE|DICT|INTERRES
    95   49   50 1    
    96   49  115 1    
    97   50   51 1    
    98   50   52 1    
    99   50  116 1    
   100   51  117 1    
   101   51  118 1    
   102   51  119 1    
   103   52   53 2    
   104   52   54 am   BACKBONE|DICT|INTERRES
   105   54   55 1    
   106   54  120 1    
   107   55   56 1    
   108   55   57 1    
   109   55  121 1    
   110   56  122 1    
   111   56  123 1    
   112   56  124 1    
   113   57   58 2    
   114   57   59 am   BACKBONE|DICT|INTERRES
   115   59   60 1    
   116   59  125 1    
   117   60   61 1    
   118   60   62 1    
   119   60  126 1    
   120   61  127 1    
   121   61  128 1    
   122   61  129 1    
   123   62   63 2    
   124   62   64 am   BACKBONE|DICT|INTERRES
   125   64   65 1    
   126   64  130 1    
   127   65   66 1    
   128   65   69 1    
   129   65  131 1    
   130   66   67 am   BACKBONE|DICT|INTERRES
   131   66   68 2    
   132   67  132 1    
   133   67  133 1    
   134   69   70 1    
   135   69  134 1    
   136   69  135 1    
   137   70   71 1    
   138   71  136 1    
   139   71  137 1    
@<TRIPOS>SUBSTRUCTURE
     1 UNK         1 GROUP             0       ****    0 ROOT    
