@<TRIPOS>MOLECULE
3R136
137   139    1
SMALL
USER_CHARGES


@<TRIPOS>ATOM
      1 CA         33.7342   23.9863    1.2867 C.3       0 UNK        -0.1979 
      2 C          32.5362   24.5897    0.5695 C.2       0 UNK         0.4864 
      3 O          32.1242   24.0812   -0.4734 O.2       0 UNK        -0.5359 
      4 N          31.9621   25.6641    1.1280 N.am      1 UNK        -0.4318 
      5 CA         30.7990   26.3864    0.5935 C.3       1 UNK         0.0824 
      6 C6         30.7246   27.8779    1.0518 C.3       12 UNK        -0.0944 
      7 S7         31.5555   28.2887    2.6284 S.3       12 UNK        -0.2672 
      8 C8         30.1700   28.6190    3.7694 C.3       12 UNK         0.0333 
      9 C9         29.5229   27.3495    4.3022 C.ar      12 UNK        -0.0807 
     10 C10        30.3141   26.2880    4.7435 C.ar      12 UNK        -0.0894 
     11 C11        29.7385   25.1042    5.2121 C.ar      12 UNK        -0.0804 
     12 C12        28.3423   25.0023    5.2520 C.ar      12 UNK        -0.0824 
     13 C13        27.5327   26.0721    4.8482 C.ar      12 UNK        -0.0762 
     14 C14        28.1335   27.2496    4.3942 C.ar      12 UNK        -0.0782 
     15 C15        26.0136   25.9678    4.9349 C.3       12 UNK         0.0230 
     16 S16        25.2299   25.7136    3.3047 S.3       12 UNK        -0.2608 
     17 C17        24.9693   27.4220    2.7059 C.3       12 UNK        -0.0989 
     18 CA         25.9961   27.8205    1.6144 C.3       5 UNK         0.0716 
     19 N          25.9283   27.0168    0.3933 N.am      5 UNK        -0.4135 
     20 C          24.9616   27.0058   -0.5334 C.2       4 UNK         0.5031 
     21 O          23.8974   27.6157   -0.4238 O.2       4 UNK        -0.5229 
     22 CA         25.2277   26.2059   -1.8199 C.3       4 UNK         0.0329 
     23 CB         25.6759   27.1468   -2.9522 C.3       4 UNK        -0.2001 
     24 N          26.2314   25.1489   -1.6465 N.am      4 UNK        -0.4303 
     25 C          26.1178   23.9043   -2.1315 C.2       3 UNK         0.5044 
     26 O          25.1652   23.5155   -2.8093 O.2       3 UNK        -0.5152 
     27 CA         27.2571   22.9135   -1.8169 C.3       3 UNK         0.0319 
     28 CB         28.2610   22.8658   -2.9800 C.3       3 UNK        -0.2001 
     29 N          27.9786   23.2081   -0.5759 N.am      3 UNK        -0.4354 
     30 C          27.4399   23.1886    0.6518 C.2       2 UNK         0.4964 
     31 O          26.2833   22.8344    0.8804 O.2       2 UNK        -0.5047 
     32 CA         28.3290   23.6349    1.8288 C.3       2 UNK         0.0288 
     33 CB         28.8575   22.3905    2.5594 C.3       2 UNK        -0.2113 
     34 N          29.4707   24.5011    1.5004 N.am      2 UNK        -0.4145 
     35 C          29.4637   25.6336    0.7795 C.2       1 UNK         0.5006 
     36 O          28.4591   26.0737    0.2183 O.2       1 UNK        -0.5103 
     37 C          26.0233   29.3272    1.2861 C.2       5 UNK         0.5055 
     38 O          25.2050   30.0995    1.7903 O.2       5 UNK        -0.5220 
     39 N          26.9763   29.6996    0.4203 N.am      6 UNK        -0.4450 
     40 CA         27.2818   31.0733    0.0186 C.3       6 UNK         0.0367 
     41 CB         28.2296   31.0181   -1.1931 C.3       6 UNK        -0.1929 
     42 C          27.9112   31.8972    1.1587 C.2       6 UNK         0.5070 
     43 O          28.3092   31.3425    2.1857 O.2       6 UNK        -0.5237 
     44 N          28.0231   33.2138    0.9402 N.am      7 UNK        -0.4739 
     45 CA         28.6729   34.1713    1.8406 C.3       7 UNK         0.0276 
     46 CB         28.2029   35.5927    1.4785 C.3       7 UNK        -0.1927 
     47 C          30.2087   34.0320    1.8026 C.2       7 UNK         0.5013 
     48 O          30.8957   34.8679    1.2120 O.2       7 UNK        -0.5193 
     49 N          30.7092   32.9571    2.4143 N.am      8 UNK        -0.4253 
     50 CA         32.1164   32.5882    2.5321 C.3       8 UNK         0.0242 
     51 CB         32.5381   31.7902    1.2809 C.3       8 UNK        -0.2000 
     52 C          32.3085   31.7928    3.8342 C.2       8 UNK         0.4948 
     53 O          31.3637   31.6655    4.6179 O.2       8 UNK        -0.5275 
     54 N          33.5219   31.2710    4.0489 N.am      9 UNK        -0.4246 
     55 CA         33.8790   30.4349    5.1987 C.3       9 UNK         0.0261 
     56 CB         34.3943   31.3189    6.3519 C.3       9 UNK        -0.1959 
     57 C          34.8784   29.3421    4.7843 C.2       9 UNK         0.5033 
     58 O          35.8076   29.0373    5.5340 O.2       9 UNK        -0.5390 
     59 N          34.6776   28.7627    3.5918 N.am      10 UNK        -0.4215 
     60 CA         35.5612   27.7629    2.9792 C.3       10 UNK         0.0240 
     61 CB         35.1786   27.5784    1.5016 C.3       10 UNK        -0.1982 
     62 C          35.6209   26.4100    3.7161 C.2       10 UNK         0.4970 
     63 O          36.5767   25.6638    3.5018 O.2       10 UNK        -0.4916 
     64 N          34.6354   26.1224    4.5794 N.am      11 UNK        -0.4279 
     65 CA         34.6926   25.0135    5.5488 C.3       11 UNK         0.1003 
     66 C          35.6970   25.2491    6.7195 C.2       11 UNK         0.5709 
     67 N          36.2281   26.4492    6.9306 N.am      11 UNK        -0.7358 
     68 O          36.0103   24.3124    7.4504 O.2       11 UNK        -0.4999 
     69 C69        33.2886   24.6417    6.0989 C.3       12 UNK        -0.0954 
     70 S70        32.2273   23.8026    4.8751 S.3       12 UNK        -0.2268 
     71 C71        30.6005   23.9405    5.7037 C.3       12 UNK         0.0203 
     72 H72        34.6448   24.1663    0.7159 H         1 UNK         0.0888 
     73 H73        33.8663   24.4077    2.2821 H         1 UNK         0.0888 
     74 H74        33.6051   22.9097    1.3950 H         1 UNK         0.0888 
     75 H75        32.3252   26.0420    1.9917 H         1 UNK         0.3017 
     76 H76        30.9276   26.4138   -0.4911 H         1 UNK         0.0873 
     77 H77        29.6999   28.2529    1.0772 H         1 UNK         0.0745 
     78 H78        31.2176   28.4898    0.2949 H         1 UNK         0.0745 
     79 H79        29.4391   29.2589    3.2753 H         1 UNK         0.0705 
     80 H80        30.5486   29.1812    4.6226 H         1 UNK         0.0705 
     81 H81        31.3874   26.3935    4.7151 H         1 UNK         0.1334 
     82 H82        27.8840   24.0920    5.6142 H         1 UNK         0.1417 
     83 H83        27.5181   28.0925    4.1147 H         1 UNK         0.1562 
     84 H84        25.6043   26.8549    5.4200 H         1 UNK         0.0748 
     85 H85        25.7371   25.1291    5.5755 H         1 UNK         0.0748 
     86 H86        25.0202   28.1076    3.5531 H         1 UNK         0.0940 
     87 H87        23.9521   27.5052    2.3199 H         1 UNK         0.0940 
     88 H88        26.9877   27.6087    2.0086 H         1 UNK         0.0703 
     89 H89        26.7899   26.5080    0.2110 H         1 UNK         0.3081 
     90 H90        24.2702   25.7624   -2.1016 H         1 UNK         0.0719 
     91 H91        26.6357   27.6152   -2.7307 H         1 UNK         0.0809 
     92 H92        25.7744   26.6103   -3.8960 H         1 UNK         0.0809 
     93 H93        24.9498   27.9459   -3.1090 H         1 UNK         0.0809 
     94 H94        27.0605   25.3744   -1.1092 H         1 UNK         0.2990 
     95 H95        26.8079   21.9237   -1.7113 H         1 UNK         0.0690 
     96 H96        28.7633   23.8241   -3.1193 H         1 UNK         0.0788 
     97 H97        27.7605   22.6207   -3.9180 H         1 UNK         0.0788 
     98 H98        29.0252   22.1061   -2.8149 H         1 UNK         0.0788 
     99 H99        28.9428   23.4949   -0.6668 H         1 UNK         0.2993 
    100 H100       27.6928   24.1980    2.5126 H         1 UNK         0.0949 
    101 H101       28.0366   21.7679    2.9184 H         1 UNK         0.0767 
    102 H102       29.4761   21.7734    1.9063 H         1 UNK         0.0767 
    103 H103       29.4586   22.6608    3.4234 H         1 UNK         0.0767 
    104 H104       30.3545   24.2286    1.9040 H         1 UNK         0.3013 
    105 H105       27.5984   28.9876    0.0687 H         1 UNK         0.3121 
    106 H106       26.3491   31.5576   -0.2784 H         1 UNK         0.0774 
    107 H107       28.4389   32.0157   -1.5807 H         1 UNK         0.0815 
    108 H108       29.1873   30.5635   -0.9349 H         1 UNK         0.0815 
    109 H109       27.7951   30.4440   -2.0119 H         1 UNK         0.0815 
    110 H110       27.6984   33.5846    0.0584 H         1 UNK         0.2987 
    111 H111       28.3489   33.9656    2.8637 H         1 UNK         0.0949 
    112 H112       27.1228   35.6931    1.5868 H         1 UNK         0.0806 
    113 H113       28.6626   36.3337    2.1340 H         1 UNK         0.0806 
    114 H114       28.4636   35.8584    0.4532 H         1 UNK         0.0806 
    115 H115       30.0640   32.3150    2.8665 H         1 UNK         0.3010 
    116 H116       32.7219   33.4937    2.6093 H         1 UNK         0.0829 
    117 H117       32.3938   32.3775    0.3738 H         1 UNK         0.0813 
    118 H118       33.5912   31.5105    1.3110 H         1 UNK         0.0813 
    119 H119       31.9549   30.8754    1.1750 H         1 UNK         0.0813 
    120 H120       34.2558   31.4298    3.3715 H         1 UNK         0.3038 
    121 H121       32.9912   29.9037    5.5491 H         1 UNK         0.0769 
    122 H122       33.6475   32.0542    6.6517 H         1 UNK         0.0811 
    123 H123       34.6269   30.7200    7.2334 H         1 UNK         0.0811 
    124 H124       35.3008   31.8560    6.0710 H         1 UNK         0.0811 
    125 H125       33.8523   29.0211    3.0661 H         1 UNK         0.3204 
    126 H126       36.5746   28.1692    3.0075 H         1 UNK         0.0748 
    127 H127       35.8108   26.8307    1.0204 H         1 UNK         0.0771 
    128 H128       34.1462   27.2563    1.3858 H         1 UNK         0.0771 
    129 H129       35.3000   28.5074    0.9442 H         1 UNK         0.0771 
    130 H130       33.8936   26.7920    4.7072 H         1 UNK         0.2980 
    131 H131       35.0737   24.1378    5.0197 H         1 UNK         0.0545 
    132 H132       36.0022   27.2471    6.3459 H         1 UNK         0.3459 
    133 H133       36.8768   26.5642    7.6926 H         1 UNK         0.3459 
    134 H134       33.3716   23.9577    6.9459 H         1 UNK         0.0616 
    135 H135       32.7826   25.5304    6.4798 H         1 UNK         0.0616 
    136 H136       30.7441   24.0419    6.7801 H         1 UNK         0.0634 
    137 H137       30.0701   22.9983    5.5652 H         1 UNK         0.0634 
@<TRIPOS>BOND
     1    1    2 1    
     2    1   72 1    
     3    1   73 1    
     4    1   74 1    
     5    2    3 2    
     6    2    4 am   BACKBONE|DICT|INTERRES
     7    4    5 1    
     8    4   75 1    
     9    5    6 1    
    10    5   35 1    
    11    5   76 1    
    12    6    7 1    
    13    6   77 1    
    14    6   78 1    
    15    7    8 1    
    16    8    9 1    
    17    8   79 1    
    18    8   80 1    
    19    9   10 ar   
    20    9   14 ar   
    21   10   11 ar   
    22   10   81 1    
    23   11   12 ar   
    24   11   71 1    
    25   12   13 ar   
    26   12   82 1    
    27   13   14 ar   
    28   13   15 1    
    29   14   83 1    
    30   15   16 1    
    31   15   84 1    
    32   15   85 1    
    33   16   17 1    
    34   17   18 1    
    35   17   86 1    
    36   17   87 1    
    37   18   19 1    
    38   18   37 1    
    39   18   88 1    
    40   19   20 am   BACKBONE|DICT|INTERRES
    41   19   89 1    
    42   20   21 2    
    43   20   22 1    
    44   22   23 1    
    45   22   24 1    
    46   22   90 1    
    47   23   91 1    
    48   23   92 1    
    49   23   93 1    
    50   24   25 am   BACKBONE|DICT|INTERRES
    51   24   94 1    
    52   25   26 2    
    53   25   27 1    
    54   27   28 1    
    55   27   29 1    
    56   27   95 1    
    57   28   96 1    
    58   28   97 1    
    59   28   98 1    
    60   29   30 am   BACKBONE|DICT|INTERRES
    61   29   99 1    
    62   30   31 2    
    63   30   32 1    
    64   32   33 1    
    65   32   34 1    
    66   32  100 1    
    67   33  101 1    
    68   33  102 1    
    69   33  103 1    
    70   34   35 am   BACKBONE|DICT|INTERRES
    71   34  104 1    
    72   35   36 2    
    73   37   38 2    
    74   37   39 am   BACKBONE|DICT|INTERRES
    75   39   40 1    
    76   39  105 1    
    77   40   41 1    
    78   40   42 1    
    79   40  106 1    
    80   41  107 1    
    81   41  108 1    
    82   41  109 1    
    83   42   43 2    
    84   42   44 am   BACKBONE|DICT|INTERRES
    85   44   45 1    
    86   44  110 1    
    87   45   46 1    
    88   45   47 1    
    89   45  111 1    
    90   46  112 1    
    91   46  113 1    
    92   46  114 1    
    93   47   48 2    
    94   47   49 am   BACKBONE|DICT|INTERRES
    95   49   50 1    
    96   49  115 1    
    97   50   51 1    
    98   50   52 1    
    99   50  116 1    
   100   51  117 1    
   101   51  118 1    
   102   51  119 1    
   103   52   53 2    
   104   52   54 am   BACKBONE|DICT|INTERRES
   105   54   55 1    
   106   54  120 1    
   107   55   56 1    
   108   55   57 1    
   109   55  121 1    
   110   56  122 1    
   111   56  123 1    
   112   56  124 1    
   113   57   58 2    
   114   57   59 am   BACKBONE|DICT|INTERRES
   115   59   60 1    
   116   59  125 1    
   117   60   61 1    
   118   60   62 1    
   119   60  126 1    
   120   61  127 1    
   121   61  128 1    
   122   61  129 1    
   123   62   63 2    
   124   62   64 am   BACKBONE|DICT|INTERRES
   125   64   65 1    
   126   64  130 1    
   127   65   66 1    
   128   65   69 1    
   129   65  131 1    
   130   66   67 am   BACKBONE|DICT|INTERRES
   131   66   68 2    
   132   67  132 1    
   133   67  133 1    
   134   69   70 1    
   135   69  134 1    
   136   69  135 1    
   137   70   71 1    
   138   71  136 1    
   139   71  137 1    
@<TRIPOS>SUBSTRUCTURE
     1 UNK         1 GROUP             0       ****    0 ROOT    
