@<TRIPOS>MOLECULE
3R136
137   139    1
SMALL
USER_CHARGES


@<TRIPOS>ATOM
      1 CA         28.5641   19.3407    1.1530 C.3       0 UNK        -0.1979 
      2 C          28.5530   20.3266   -0.0061 C.2       0 UNK         0.4864 
      3 O          28.1166   19.9765   -1.1039 O.2       0 UNK        -0.5359 
      4 N          29.0343   21.5536    0.2281 N.am      1 UNK        -0.4318 
      5 CA         29.0478   22.6454   -0.7476 C.3       1 UNK         0.0824 
      6 C6         30.0375   23.7659   -0.3399 C.3       12 UNK        -0.0944 
      7 S7         31.7769   23.2633   -0.5591 S.3       12 UNK        -0.2672 
      8 C8         32.2650   22.7193    1.1120 C.3       12 UNK         0.0333 
      9 C9         32.2404   23.8427    2.1414 C.ar      12 UNK        -0.0807 
     10 C10        33.0391   24.9784    1.9691 C.ar      12 UNK        -0.0894 
     11 C11        33.0351   26.0013    2.9215 C.ar      12 UNK        -0.0804 
     12 C12        32.2250   25.8807    4.0548 C.ar      12 UNK        -0.0824 
     13 C13        31.4437   24.7400    4.2534 C.ar      12 UNK        -0.0762 
     14 C14        31.4472   23.7284    3.2885 C.ar      12 UNK        -0.0782 
     15 C15        30.6308   24.5805    5.5307 C.3       12 UNK         0.0230 
     16 S16        28.8954   25.0792    5.3122 S.3       12 UNK        -0.2608 
     17 C17        29.0265   26.8978    5.2046 C.3       12 UNK        -0.0989 
     18 CA         28.8198   27.4133    3.7568 C.3       5 UNK         0.0716 
     19 N          27.5461   26.9973    3.1519 N.am      5 UNK        -0.4135 
     20 C          26.2944   27.2699    3.5517 C.2       4 UNK         0.5031 
     21 O          26.0269   27.8974    4.5786 O.2       4 UNK        -0.5229 
     22 CA         25.1566   26.8196    2.6099 C.3       4 UNK         0.0329 
     23 CB         23.8883   27.6854    2.7673 C.3       4 UNK        -0.2001 
     24 N          25.5580   26.7546    1.1957 N.am      4 UNK        -0.4303 
     25 C          26.0879   27.7454    0.4555 C.2       3 UNK         0.5044 
     26 O          26.2816   28.8852    0.8824 O.2       3 UNK        -0.5152 
     27 CA         26.5383   27.3967   -0.9746 C.3       3 UNK         0.0319 
     28 CB         28.0337   27.7056   -1.1691 C.3       3 UNK        -0.2001 
     29 N          26.3309   25.9825   -1.2847 N.am      3 UNK        -0.4354 
     30 C          25.8511   25.4741   -2.4227 C.2       2 UNK         0.4964 
     31 O          25.4489   26.1595   -3.3644 O.2       2 UNK        -0.5047 
     32 CA         25.8575   23.9319   -2.5215 C.3       2 UNK         0.0288 
     33 CB         25.4655   23.4254   -3.9227 C.3       2 UNK        -0.2113 
     34 N          27.1562   23.3500   -2.1524 N.am      2 UNK        -0.4145 
     35 C          27.6269   23.2163   -0.9039 C.2       1 UNK         0.5006 
     36 O          27.0064   23.5843    0.0987 O.2       1 UNK        -0.5103 
     37 C          29.0707   28.9355    3.6642 C.2       5 UNK         0.5055 
     38 O          30.1808   29.3419    3.3174 O.2       5 UNK        -0.5220 
     39 N          28.0507   29.7489    3.9647 N.am      6 UNK        -0.4450 
     40 CA         28.0801   31.2109    4.0062 C.3       6 UNK         0.0367 
     41 CB         26.7133   31.7364    4.4715 C.3       6 UNK        -0.1929 
     42 C          28.4903   31.8676    2.6802 C.2       6 UNK         0.5070 
     43 O          29.3613   32.7376    2.6897 O.2       6 UNK        -0.5237 
     44 N          27.9077   31.4225    1.5557 N.am      7 UNK        -0.4739 
     45 CA         28.2382   31.9503    0.2236 C.3       7 UNK         0.0276 
     46 CB         27.0970   31.6590   -0.7646 C.3       7 UNK        -0.1927 
     47 C          29.5964   31.4522   -0.3074 C.2       7 UNK         0.5013 
     48 O          30.1097   32.0239   -1.2692 O.2       7 UNK        -0.5193 
     49 N          30.1717   30.4345    0.3492 N.am      8 UNK        -0.4253 
     50 CA         31.5402   29.9577    0.1432 C.3       8 UNK         0.0242 
     51 CB         31.5536   28.4210    0.2223 C.3       8 UNK        -0.2000 
     52 C          32.5319   30.5994    1.1387 C.2       8 UNK         0.4948 
     53 O          33.6758   30.1524    1.2113 O.2       8 UNK        -0.5275 
     54 N          32.0914   31.6367    1.8696 N.am      9 UNK        -0.4246 
     55 CA         32.8439   32.4630    2.8201 C.3       9 UNK         0.0261 
     56 CB         34.1070   33.0805    2.1791 C.3       9 UNK        -0.1959 
     57 C          33.1172   31.7988    4.1836 C.2       9 UNK         0.5033 
     58 O          34.0158   32.2557    4.8922 O.2       9 UNK        -0.5390 
     59 N          32.3073   30.7944    4.5582 N.am      10 UNK        -0.4215 
     60 CA         32.2161   30.1748    5.8881 C.3       10 UNK         0.0240 
     61 CB         31.5455   31.1492    6.8796 C.3       10 UNK        -0.1982 
     62 C          33.5544   29.6193    6.4144 C.2       10 UNK         0.4970 
     63 O          34.0833   30.1128    7.4127 O.2       10 UNK        -0.4916 
     64 N          34.0647   28.5971    5.7174 N.am      11 UNK        -0.4279 
     65 CA         35.2664   27.8140    6.0467 C.3       11 UNK         0.1003 
     66 C          35.2846   27.2898    7.5113 C.2       11 UNK         0.5709 
     67 N          36.4283   27.3478    8.1800 N.am      11 UNK        -0.7358 
     68 O          34.2844   26.7885    8.0224 O.2       11 UNK        -0.4999 
     69 C69        35.4333   26.6154    5.0747 C.3       12 UNK        -0.0954 
     70 S70        35.6021   27.0793    3.3171 S.3       12 UNK        -0.2268 
     71 C71        33.8872   27.2456    2.7142 C.3       12 UNK         0.0203 
     72 H72        29.1539   18.4623    0.8925 H         1 UNK         0.0888 
     73 H73        28.9886   19.7777    2.0568 H         1 UNK         0.0888 
     74 H74        27.5488   19.0156    1.3783 H         1 UNK         0.0888 
     75 H75        29.3354   21.7983    1.1591 H         1 UNK         0.3017 
     76 H76        29.3633   22.2403   -1.7121 H         1 UNK         0.0873 
     77 H77        29.8625   24.0959    0.6858 H         1 UNK         0.0745 
     78 H78        29.8935   24.6501   -0.9646 H         1 UNK         0.0745 
     79 H79        33.2778   22.3172    1.0621 H         1 UNK         0.0705 
     80 H80        31.6267   21.8901    1.4187 H         1 UNK         0.0705 
     81 H81        33.6623   25.0661    1.0895 H         1 UNK         0.1334 
     82 H82        32.2182   26.6626    4.7992 H         1 UNK         0.1417 
     83 H83        30.8426   22.8452    3.4434 H         1 UNK         0.1562 
     84 H84        31.0779   25.1492    6.3478 H         1 UNK         0.0748 
     85 H85        30.6546   23.5365    5.8469 H         1 UNK         0.0748 
     86 H86        29.9950   27.2143    5.5940 H         1 UNK         0.0940 
     87 H87        28.2848   27.3299    5.8786 H         1 UNK         0.0940 
     88 H88        29.5897   26.9515    3.1361 H         1 UNK         0.0703 
     89 H89        27.6400   26.4794    2.2915 H         1 UNK         0.3081 
     90 H90        24.9042   25.8008    2.9075 H         1 UNK         0.0719 
     91 H91        24.0857   28.7345    2.5440 H         1 UNK         0.0809 
     92 H92        23.0914   27.3460    2.1058 H         1 UNK         0.0809 
     93 H93        23.5029   27.6369    3.7865 H         1 UNK         0.0809 
     94 H94        25.4232   25.8570    0.7523 H         1 UNK         0.2990 
     95 H95        25.9523   28.0225   -1.6507 H         1 UNK         0.0690 
     96 H96        28.3431   27.5294   -2.1994 H         1 UNK         0.0788 
     97 H97        28.6535   27.0832   -0.5233 H         1 UNK         0.0788 
     98 H98        28.2664   28.7433   -0.9389 H         1 UNK         0.0788 
     99 H99        26.6472   25.3101   -0.5909 H         1 UNK         0.2993 
    100 H100       25.1050   23.5692   -1.8175 H         1 UNK         0.0949 
    101 H101       25.4303   22.3362   -3.9552 H         1 UNK         0.0767 
    102 H102       24.4763   23.7865   -4.2080 H         1 UNK         0.0767 
    103 H103       26.1692   23.7621   -4.6853 H         1 UNK         0.0767 
    104 H104       27.7416   23.0560   -2.9215 H         1 UNK         0.3013 
    105 H105       27.1796   29.2991    4.2393 H         1 UNK         0.3121 
    106 H106       28.8242   31.4962    4.7522 H         1 UNK         0.0774 
    107 H107       26.7092   32.8262    4.5220 H         1 UNK         0.0815 
    108 H108       25.9131   31.4368    3.7933 H         1 UNK         0.0815 
    109 H109       26.4643   31.3662    5.4662 H         1 UNK         0.0815 
    110 H110       27.2317   30.6653    1.5971 H         1 UNK         0.2987 
    111 H111       28.3200   33.0369    0.3046 H         1 UNK         0.0949 
    112 H112       26.9630   30.5944   -0.9418 H         1 UNK         0.0806 
    113 H113       26.1492   32.0580   -0.4032 H         1 UNK         0.0806 
    114 H114       27.2941   32.1228   -1.7320 H         1 UNK         0.0806 
    115 H115       29.6887   30.0549    1.1531 H         1 UNK         0.3010 
    116 H116       31.8768   30.2382   -0.8570 H         1 UNK         0.0829 
    117 H117       30.8480   27.9828   -0.4812 H         1 UNK         0.0813 
    118 H118       32.5353   28.0284   -0.0413 H         1 UNK         0.0813 
    119 H119       31.3070   28.0590    1.2206 H         1 UNK         0.0813 
    120 H120       31.1183   31.9034    1.7715 H         1 UNK         0.3038 
    121 H121       32.1753   33.2944    3.0484 H         1 UNK         0.0769 
    122 H122       34.5347   33.8506    2.8221 H         1 UNK         0.0811 
    123 H123       33.8793   33.5507    1.2226 H         1 UNK         0.0811 
    124 H124       34.8844   32.3345    2.0125 H         1 UNK         0.0811 
    125 H125       31.6168   30.4607    3.8886 H         1 UNK         0.3204 
    126 H126       31.5490   29.3182    5.7823 H         1 UNK         0.0748 
    127 H127       31.4086   30.6815    7.8555 H         1 UNK         0.0771 
    128 H128       32.1432   32.0489    7.0307 H         1 UNK         0.0771 
    129 H129       30.5610   31.4572    6.5285 H         1 UNK         0.0771 
    130 H130       33.5833   28.3043    4.8839 H         1 UNK         0.2980 
    131 H131       36.1172   28.4849    5.9152 H         1 UNK         0.0545 
    132 H132       37.2572   27.7437    7.7643 H         1 UNK         0.3459 
    133 H133       36.4611   26.9965    9.1243 H         1 UNK         0.3459 
    134 H134       36.3433   26.0678    5.3275 H         1 UNK         0.0616 
    135 H135       34.6268   25.8930    5.1957 H         1 UNK         0.0616 
    136 H136       33.9483   27.4612    1.6484 H         1 UNK         0.0634 
    137 H137       33.4083   28.1175    3.1585 H         1 UNK         0.0634 
@<TRIPOS>BOND
     1    1    2 1    
     2    1   72 1    
     3    1   73 1    
     4    1   74 1    
     5    2    3 2    
     6    2    4 am   BACKBONE|DICT|INTERRES
     7    4    5 1    
     8    4   75 1    
     9    5    6 1    
    10    5   35 1    
    11    5   76 1    
    12    6    7 1    
    13    6   77 1    
    14    6   78 1    
    15    7    8 1    
    16    8    9 1    
    17    8   79 1    
    18    8   80 1    
    19    9   10 ar   
    20    9   14 ar   
    21   10   11 ar   
    22   10   81 1    
    23   11   12 ar   
    24   11   71 1    
    25   12   13 ar   
    26   12   82 1    
    27   13   14 ar   
    28   13   15 1    
    29   14   83 1    
    30   15   16 1    
    31   15   84 1    
    32   15   85 1    
    33   16   17 1    
    34   17   18 1    
    35   17   86 1    
    36   17   87 1    
    37   18   19 1    
    38   18   37 1    
    39   18   88 1    
    40   19   20 am   BACKBONE|DICT|INTERRES
    41   19   89 1    
    42   20   21 2    
    43   20   22 1    
    44   22   23 1    
    45   22   24 1    
    46   22   90 1    
    47   23   91 1    
    48   23   92 1    
    49   23   93 1    
    50   24   25 am   BACKBONE|DICT|INTERRES
    51   24   94 1    
    52   25   26 2    
    53   25   27 1    
    54   27   28 1    
    55   27   29 1    
    56   27   95 1    
    57   28   96 1    
    58   28   97 1    
    59   28   98 1    
    60   29   30 am   BACKBONE|DICT|INTERRES
    61   29   99 1    
    62   30   31 2    
    63   30   32 1    
    64   32   33 1    
    65   32   34 1    
    66   32  100 1    
    67   33  101 1    
    68   33  102 1    
    69   33  103 1    
    70   34   35 am   BACKBONE|DICT|INTERRES
    71   34  104 1    
    72   35   36 2    
    73   37   38 2    
    74   37   39 am   BACKBONE|DICT|INTERRES
    75   39   40 1    
    76   39  105 1    
    77   40   41 1    
    78   40   42 1    
    79   40  106 1    
    80   41  107 1    
    81   41  108 1    
    82   41  109 1    
    83   42   43 2    
    84   42   44 am   BACKBONE|DICT|INTERRES
    85   44   45 1    
    86   44  110 1    
    87   45   46 1    
    88   45   47 1    
    89   45  111 1    
    90   46  112 1    
    91   46  113 1    
    92   46  114 1    
    93   47   48 2    
    94   47   49 am   BACKBONE|DICT|INTERRES
    95   49   50 1    
    96   49  115 1    
    97   50   51 1    
    98   50   52 1    
    99   50  116 1    
   100   51  117 1    
   101   51  118 1    
   102   51  119 1    
   103   52   53 2    
   104   52   54 am   BACKBONE|DICT|INTERRES
   105   54   55 1    
   106   54  120 1    
   107   55   56 1    
   108   55   57 1    
   109   55  121 1    
   110   56  122 1    
   111   56  123 1    
   112   56  124 1    
   113   57   58 2    
   114   57   59 am   BACKBONE|DICT|INTERRES
   115   59   60 1    
   116   59  125 1    
   117   60   61 1    
   118   60   62 1    
   119   60  126 1    
   120   61  127 1    
   121   61  128 1    
   122   61  129 1    
   123   62   63 2    
   124   62   64 am   BACKBONE|DICT|INTERRES
   125   64   65 1    
   126   64  130 1    
   127   65   66 1    
   128   65   69 1    
   129   65  131 1    
   130   66   67 am   BACKBONE|DICT|INTERRES
   131   66   68 2    
   132   67  132 1    
   133   67  133 1    
   134   69   70 1    
   135   69  134 1    
   136   69  135 1    
   137   70   71 1    
   138   71  136 1    
   139   71  137 1    
@<TRIPOS>SUBSTRUCTURE
     1 UNK         1 GROUP             0       ****    0 ROOT    
