@<TRIPOS>MOLECULE
3R136
137   139    1
SMALL
USER_CHARGES


@<TRIPOS>ATOM
      1 CA         32.8679   23.3645   -2.4030 C.3       0 UNK        -0.1979 
      2 C          32.1981   22.8881   -1.1225 C.2       0 UNK         0.4864 
      3 O          32.8683   22.3195   -0.2598 O.2       0 UNK        -0.5359 
      4 N          30.8853   23.1141   -0.9987 N.am      1 UNK        -0.4318 
      5 CA         30.0903   22.8102    0.1877 C.3       1 UNK         0.0824 
      6 C6         29.7936   21.2930    0.3601 C.3       12 UNK        -0.0944 
      7 S7         28.9627   20.8550    1.9297 S.3       12 UNK        -0.2672 
      8 C8         30.3516   20.7142    3.1049 C.3       12 UNK         0.0333 
      9 C9         30.7985   22.0771    3.6164 C.ar      12 UNK        -0.0807 
     10 C10        32.0209   22.6218    3.2117 C.ar      12 UNK        -0.0894 
     11 C11        32.4070   23.8960    3.6389 C.ar      12 UNK        -0.0804 
     12 C12        31.5686   24.6184    4.4924 C.ar      12 UNK        -0.0824 
     13 C13        30.3473   24.0836    4.9121 C.ar      12 UNK        -0.0762 
     14 C14        29.9770   22.8035    4.4844 C.ar      12 UNK        -0.0782 
     15 C15        29.4370   24.9044    5.8200 C.3       12 UNK         0.0230 
     16 S16        27.7020   24.9899    5.2541 S.3       12 UNK        -0.2608 
     17 C17        27.8505   25.5042    3.5077 C.3       12 UNK        -0.0989 
     18 CA         28.2346   26.9883    3.2963 C.3       5 UNK         0.0716 
     19 N          28.7398   27.2052    1.9333 N.am      5 UNK        -0.4135 
     20 C          29.2132   28.3514    1.4217 C.2       4 UNK         0.5031 
     21 O          29.3023   29.3971    2.0580 O.2       4 UNK        -0.5229 
     22 CA         29.6058   28.3473   -0.0635 C.3       4 UNK         0.0329 
     23 CB         31.0372   27.8244   -0.2558 C.3       4 UNK        -0.2001 
     24 N          28.6787   27.5341   -0.8504 N.am      4 UNK        -0.4303 
     25 C          27.5452   27.9901   -1.3990 C.2       3 UNK         0.5044 
     26 O          27.1958   29.1703   -1.3720 O.2       3 UNK        -0.5152 
     27 CA         26.6356   26.9552   -2.0887 C.3       3 UNK         0.0319 
     28 CB         27.0006   26.8269   -3.5762 C.3       3 UNK        -0.2001 
     29 N          26.6599   25.6262   -1.4676 N.am      3 UNK        -0.4354 
     30 C          26.2379   25.3598   -0.2235 C.2       2 UNK         0.4964 
     31 O          25.8020   26.2125    0.5512 O.2       2 UNK        -0.5047 
     32 CA         26.3587   23.8999    0.2537 C.3       2 UNK         0.0288 
     33 CB         25.2475   23.0395   -0.3701 C.3       2 UNK        -0.2113 
     34 N          27.6576   23.2375    0.0472 N.am      2 UNK        -0.4145 
     35 C          28.8843   23.7620    0.1950 C.2       1 UNK         0.5006 
     36 O          29.1047   24.9637    0.3394 O.2       1 UNK        -0.5103 
     37 C          27.0782   27.9413    3.6762 C.2       5 UNK         0.5055 
     38 O          26.9758   28.3374    4.8380 O.2       5 UNK        -0.5220 
     39 N          26.2657   28.3385    2.6845 N.am      6 UNK        -0.4450 
     40 CA         25.2069   29.3488    2.7920 C.3       6 UNK         0.0367 
     41 CB         24.5083   29.4788    1.4290 C.3       6 UNK        -0.1929 
     42 C          25.6803   30.7338    3.2856 C.2       6 UNK         0.5070 
     43 O          24.8713   31.4785    3.8399 O.2       6 UNK        -0.5237 
     44 N          26.9679   31.0492    3.1022 N.am      7 UNK        -0.4739 
     45 CA         27.6426   32.2265    3.6421 C.3       7 UNK         0.0276 
     46 CB         27.6753   33.3375    2.5750 C.3       7 UNK        -0.1927 
     47 C          29.0385   31.7769    4.0936 C.2       7 UNK         0.5013 
     48 O          30.0338   32.2384    3.5360 O.2       7 UNK        -0.5193 
     49 N          29.0577   30.8300    5.0478 N.am      8 UNK        -0.4253 
     50 CA         30.1421   29.9062    5.4246 C.3       8 UNK         0.0242 
     51 CB         29.8273   29.2852    6.7952 C.3       8 UNK        -0.2000 
     52 C          31.5946   30.4086    5.3925 C.2       8 UNK         0.4948 
     53 O          32.4788   29.6226    5.0505 O.2       8 UNK        -0.5275 
     54 N          31.8260   31.6930    5.6977 N.am      9 UNK        -0.4246 
     55 CA         33.1175   32.3731    5.5413 C.3       9 UNK         0.0261 
     56 CB         32.9846   33.8311    6.0082 C.3       9 UNK        -0.1959 
     57 C          33.6824   32.3157    4.1063 C.2       9 UNK         0.5033 
     58 O          34.9028   32.2781    3.9434 O.2       9 UNK        -0.5390 
     59 N          32.7984   32.2492    3.0984 N.am      10 UNK        -0.4215 
     60 CA         33.1344   32.0378    1.6876 C.3       10 UNK         0.0240 
     61 CB         31.8644   32.1991    0.8354 C.3       10 UNK        -0.1982 
     62 C          33.7916   30.6743    1.4024 C.2       10 UNK         0.4970 
     63 O          34.5185   30.5637    0.4145 O.2       10 UNK        -0.4916 
     64 N          33.5406   29.6748    2.2596 N.am      11 UNK        -0.4279 
     65 CA         34.1851   28.3554    2.2186 C.3       11 UNK         0.1003 
     66 C          35.5593   28.3107    2.9555 C.2       11 UNK         0.5709 
     67 N          36.0315   29.3914    3.5691 N.am      11 UNK        -0.7358 
     68 O          36.2270   27.2798    2.9574 O.2       11 UNK        -0.4999 
     69 C69        33.2060   27.2461    2.6972 C.3       12 UNK        -0.0954 
     70 S70        33.4514   25.6735    1.8003 S.3       12 UNK        -0.2268 
     71 C71        33.7211   24.4955    3.1605 C.3       12 UNK         0.0203 
     72 H72        32.1594   23.8344   -3.0850 H         1 UNK         0.0888 
     73 H73        33.6456   24.0911   -2.1688 H         1 UNK         0.0888 
     74 H74        33.3302   22.5241   -2.9199 H         1 UNK         0.0888 
     75 H75        30.3934   23.6130   -1.7271 H         1 UNK         0.3017 
     76 H76        30.6830   23.1324    1.0413 H         1 UNK         0.0873 
     77 H77        29.1879   20.9254   -0.4697 H         1 UNK         0.0745 
     78 H78        30.7238   20.7256    0.3089 H         1 UNK         0.0745 
     79 H79        31.1785   20.1760    2.6390 H         1 UNK         0.0705 
     80 H80        30.0319   20.1060    3.9523 H         1 UNK         0.0705 
     81 H81        32.6577   22.0683    2.5343 H         1 UNK         0.1334 
     82 H82        31.8627   25.6053    4.8202 H         1 UNK         0.1417 
     83 H83        29.0305   22.3850    4.7995 H         1 UNK         0.1562 
     84 H84        29.8129   25.9234    5.9246 H         1 UNK         0.0748 
     85 H85        29.4565   24.4695    6.8200 H         1 UNK         0.0748 
     86 H86        26.9020   25.2884    3.0156 H         1 UNK         0.0940 
     87 H87        28.5808   24.8531    3.0273 H         1 UNK         0.0940 
     88 H88        29.0692   27.2146    3.9596 H         1 UNK         0.0703 
     89 H89        28.7582   26.3847    1.3303 H         1 UNK         0.3081 
     90 H90        29.5772   29.3794   -0.4201 H         1 UNK         0.0719 
     91 H91        31.1518   26.8050    0.1146 H         1 UNK         0.0809 
     92 H92        31.3237   27.8317   -1.3074 H         1 UNK         0.0809 
     93 H93        31.7528   28.4514    0.2758 H         1 UNK         0.0809 
     94 H94        28.8499   26.5345   -0.8521 H         1 UNK         0.2990 
     95 H95        25.6117   27.3295   -2.0216 H         1 UNK         0.0690 
     96 H96        28.0066   26.4280   -3.7129 H         1 UNK         0.0788 
     97 H97        26.9653   27.7984   -4.0715 H         1 UNK         0.0788 
     98 H98        26.3043   26.1728   -4.1014 H         1 UNK         0.0788 
     99 H99        27.0134   24.8645   -2.0280 H         1 UNK         0.2993 
    100 H100       26.1911   23.9077    1.3312 H         1 UNK         0.0949 
    101 H101       25.3912   22.9083   -1.4433 H         1 UNK         0.0767 
    102 H102       25.2087   22.0498    0.0859 H         1 UNK         0.0767 
    103 H103       24.2677   23.4974   -0.2250 H         1 UNK         0.0767 
    104 H104       27.6112   22.2342   -0.0611 H         1 UNK         0.3013 
    105 H105       26.3744   27.8957    1.7789 H         1 UNK         0.3121 
    106 H106       24.4803   28.9792    3.5182 H         1 UNK         0.0774 
    107 H107       23.6905   30.1994    1.4749 H         1 UNK         0.0815 
    108 H108       25.1988   29.8163    0.6547 H         1 UNK         0.0815 
    109 H109       24.0837   28.5275    1.1073 H         1 UNK         0.0815 
    110 H110       27.5841   30.3700    2.6630 H         1 UNK         0.2987 
    111 H111       27.1170   32.5991    4.5242 H         1 UNK         0.0949 
    112 H112       28.1936   33.0120    1.6720 H         1 UNK         0.0806 
    113 H113       26.6683   33.6436    2.2916 H         1 UNK         0.0806 
    114 H114       28.1919   34.2224    2.9488 H         1 UNK         0.0806 
    115 H115       28.1499   30.5473    5.3919 H         1 UNK         0.3010 
    116 H116       30.1027   29.1064    4.6855 H         1 UNK         0.0829 
    117 H117       30.5999   28.5745    7.0929 H         1 UNK         0.0813 
    118 H118       29.7638   30.0452    7.5747 H         1 UNK         0.0813 
    119 H119       28.8832   28.7403    6.7790 H         1 UNK         0.0813 
    120 H120       31.0321   32.2709    5.9332 H         1 UNK         0.3038 
    121 H121       33.8332   31.8666    6.1921 H         1 UNK         0.0769 
    122 H122       33.9373   34.3560    5.9236 H         1 UNK         0.0811 
    123 H123       32.6771   33.8880    7.0526 H         1 UNK         0.0811 
    124 H124       32.2553   34.3803    5.4112 H         1 UNK         0.0811 
    125 H125       31.8017   32.2730    3.3224 H         1 UNK         0.3204 
    126 H126       33.8463   32.8130    1.3973 H         1 UNK         0.0748 
    127 H127       32.0888   32.0973   -0.2272 H         1 UNK         0.0771 
    128 H128       31.1151   31.4458    1.0848 H         1 UNK         0.0771 
    129 H129       31.4106   33.1798    0.9796 H         1 UNK         0.0771 
    130 H130       32.9821   29.8558    3.0865 H         1 UNK         0.2980 
    131 H131       34.4182   28.1522    1.1718 H         1 UNK         0.0545 
    132 H132       35.5150   30.2617    3.5771 H         1 UNK         0.3459 
    133 H133       36.9250   29.3375    4.0312 H         1 UNK         0.3459 
    134 H134       33.2832   27.1017    3.7755 H         1 UNK         0.0616 
    135 H135       32.1709   27.5420    2.5208 H         1 UNK         0.0616 
    136 H136       34.2464   24.9781    3.9858 H         1 UNK         0.0634 
    137 H137       34.3835   23.7061    2.8023 H         1 UNK         0.0634 
@<TRIPOS>BOND
     1    1    2 1    
     2    1   72 1    
     3    1   73 1    
     4    1   74 1    
     5    2    3 2    
     6    2    4 am   BACKBONE|DICT|INTERRES
     7    4    5 1    
     8    4   75 1    
     9    5    6 1    
    10    5   35 1    
    11    5   76 1    
    12    6    7 1    
    13    6   77 1    
    14    6   78 1    
    15    7    8 1    
    16    8    9 1    
    17    8   79 1    
    18    8   80 1    
    19    9   10 ar   
    20    9   14 ar   
    21   10   11 ar   
    22   10   81 1    
    23   11   12 ar   
    24   11   71 1    
    25   12   13 ar   
    26   12   82 1    
    27   13   14 ar   
    28   13   15 1    
    29   14   83 1    
    30   15   16 1    
    31   15   84 1    
    32   15   85 1    
    33   16   17 1    
    34   17   18 1    
    35   17   86 1    
    36   17   87 1    
    37   18   19 1    
    38   18   37 1    
    39   18   88 1    
    40   19   20 am   BACKBONE|DICT|INTERRES
    41   19   89 1    
    42   20   21 2    
    43   20   22 1    
    44   22   23 1    
    45   22   24 1    
    46   22   90 1    
    47   23   91 1    
    48   23   92 1    
    49   23   93 1    
    50   24   25 am   BACKBONE|DICT|INTERRES
    51   24   94 1    
    52   25   26 2    
    53   25   27 1    
    54   27   28 1    
    55   27   29 1    
    56   27   95 1    
    57   28   96 1    
    58   28   97 1    
    59   28   98 1    
    60   29   30 am   BACKBONE|DICT|INTERRES
    61   29   99 1    
    62   30   31 2    
    63   30   32 1    
    64   32   33 1    
    65   32   34 1    
    66   32  100 1    
    67   33  101 1    
    68   33  102 1    
    69   33  103 1    
    70   34   35 am   BACKBONE|DICT|INTERRES
    71   34  104 1    
    72   35   36 2    
    73   37   38 2    
    74   37   39 am   BACKBONE|DICT|INTERRES
    75   39   40 1    
    76   39  105 1    
    77   40   41 1    
    78   40   42 1    
    79   40  106 1    
    80   41  107 1    
    81   41  108 1    
    82   41  109 1    
    83   42   43 2    
    84   42   44 am   BACKBONE|DICT|INTERRES
    85   44   45 1    
    86   44  110 1    
    87   45   46 1    
    88   45   47 1    
    89   45  111 1    
    90   46  112 1    
    91   46  113 1    
    92   46  114 1    
    93   47   48 2    
    94   47   49 am   BACKBONE|DICT|INTERRES
    95   49   50 1    
    96   49  115 1    
    97   50   51 1    
    98   50   52 1    
    99   50  116 1    
   100   51  117 1    
   101   51  118 1    
   102   51  119 1    
   103   52   53 2    
   104   52   54 am   BACKBONE|DICT|INTERRES
   105   54   55 1    
   106   54  120 1    
   107   55   56 1    
   108   55   57 1    
   109   55  121 1    
   110   56  122 1    
   111   56  123 1    
   112   56  124 1    
   113   57   58 2    
   114   57   59 am   BACKBONE|DICT|INTERRES
   115   59   60 1    
   116   59  125 1    
   117   60   61 1    
   118   60   62 1    
   119   60  126 1    
   120   61  127 1    
   121   61  128 1    
   122   61  129 1    
   123   62   63 2    
   124   62   64 am   BACKBONE|DICT|INTERRES
   125   64   65 1    
   126   64  130 1    
   127   65   66 1    
   128   65   69 1    
   129   65  131 1    
   130   66   67 am   BACKBONE|DICT|INTERRES
   131   66   68 2    
   132   67  132 1    
   133   67  133 1    
   134   69   70 1    
   135   69  134 1    
   136   69  135 1    
   137   70   71 1    
   138   71  136 1    
   139   71  137 1    
@<TRIPOS>SUBSTRUCTURE
     1 UNK         1 GROUP             0       ****    0 ROOT    
