@<TRIPOS>MOLECULE
3R136
137   139    1
SMALL
USER_CHARGES


@<TRIPOS>ATOM
      1 CA         24.4240   19.8156   -1.0769 C.3       0 UNK        -0.1979 
      2 C          25.9101   19.8439   -0.7506 C.2       0 UNK         0.4864 
      3 O          26.6678   19.0280   -1.2783 O.2       0 UNK        -0.5359 
      4 N          26.3310   20.7707    0.1201 N.am      1 UNK        -0.4318 
      5 CA         27.7301   20.9881    0.4959 C.3       1 UNK         0.0824 
      6 C6         27.8296   21.8528    1.7774 C.3       12 UNK        -0.0944 
      7 S7         29.4977   21.8487    2.5225 S.3       12 UNK        -0.2672 
      8 C8         29.1243   21.9804    4.3014 C.3       12 UNK         0.0333 
      9 C9         28.6574   23.3767    4.6953 C.ar      12 UNK        -0.0807 
     10 C10        29.5592   24.3040    5.2306 C.ar      12 UNK        -0.0894 
     11 C11        29.1196   25.5710    5.6308 C.ar      12 UNK        -0.0804 
     12 C12        27.7723   25.9129    5.4803 C.ar      12 UNK        -0.0824 
     13 C13        26.8686   25.0046    4.9230 C.ar      12 UNK        -0.0762 
     14 C14        27.3134   23.7336    4.5511 C.ar      12 UNK        -0.0782 
     15 C15        25.4110   25.3870    4.7153 C.3       12 UNK         0.0230 
     16 S16        25.0689   25.7659    2.9661 S.3       12 UNK        -0.2608 
     17 C17        25.7047   27.4715    2.8068 C.3       12 UNK        -0.0989 
     18 CA         27.1872   27.5484    2.3458 C.3       5 UNK         0.0716 
     19 N          27.4738   26.7761    1.1358 N.am      5 UNK        -0.4135 
     20 C          27.0827   27.0389   -0.1186 C.2       4 UNK         0.5031 
     21 O          26.3097   27.9494   -0.4212 O.2       4 UNK        -0.5229 
     22 CA         27.6802   26.1397   -1.2249 C.3       4 UNK         0.0329 
     23 CB         27.9287   26.9186   -2.5336 C.3       4 UNK        -0.2001 
     24 N          28.8980   25.4147   -0.8235 N.am      4 UNK        -0.4303 
     25 C          30.0530   25.9454   -0.3820 C.2       3 UNK         0.5044 
     26 O          30.2371   27.1548   -0.2421 O.2       3 UNK        -0.5152 
     27 CA         31.1647   24.9810    0.0705 C.3       3 UNK         0.0319 
     28 CB         31.2550   24.9975    1.6045 C.3       3 UNK        -0.2001 
     29 N          30.9728   23.5996   -0.3690 N.am      3 UNK        -0.4354 
     30 C          31.0903   23.1621   -1.6310 C.2       2 UNK         0.4964 
     31 O          31.4793   23.8626   -2.5654 O.2       2 UNK        -0.5047 
     32 CA         30.6709   21.7039   -1.9032 C.3       2 UNK         0.0288 
     33 CB         31.9078   20.7945   -1.9835 C.3       2 UNK        -0.2113 
     34 N          29.7362   21.1592   -0.9094 N.am      2 UNK        -0.4145 
     35 C          28.5033   21.6313   -0.6721 C.2       1 UNK         0.5006 
     36 O          28.0035   22.5799   -1.2838 O.2       1 UNK        -0.5103 
     37 C          27.7152   29.0006    2.2691 C.2       5 UNK         0.5055 
     38 O          27.0978   29.9025    2.8396 O.2       5 UNK        -0.5220 
     39 N          28.8572   29.2174    1.5949 N.am      6 UNK        -0.4450 
     40 CA         29.5000   30.5240    1.3877 C.3       6 UNK         0.0367 
     41 CB         30.4727   30.4141    0.1992 C.3       6 UNK        -0.1929 
     42 C          30.1906   31.1017    2.6445 C.2       6 UNK         0.5070 
     43 O          31.2677   31.6912    2.5378 O.2       6 UNK        -0.5237 
     44 N          29.5554   30.9546    3.8140 N.am      7 UNK        -0.4739 
     45 CA         30.0590   31.3283    5.1410 C.3       7 UNK         0.0276 
     46 CB         29.0597   30.8464    6.2054 C.3       7 UNK        -0.1927 
     47 C          30.3500   32.8281    5.3208 C.2       7 UNK         0.5013 
     48 O          31.1497   33.1845    6.1863 O.2       7 UNK        -0.5193 
     49 N          29.7200   33.6738    4.4928 N.am      8 UNK        -0.4253 
     50 CA         29.9810   35.1126    4.4016 C.3       8 UNK         0.0242 
     51 CB         28.9043   35.7666    3.5206 C.3       8 UNK        -0.2000 
     52 C          31.3888   35.4442    3.8691 C.2       8 UNK         0.4948 
     53 O          31.9094   36.5133    4.1906 O.2       8 UNK        -0.5275 
     54 N          31.9754   34.5321    3.0812 N.am      9 UNK        -0.4246 
     55 CA         33.3598   34.5925    2.6207 C.3       9 UNK         0.0261 
     56 CB         33.4256   34.2318    1.1244 C.3       9 UNK        -0.1959 
     57 C          34.2069   33.6449    3.4801 C.2       9 UNK         0.5033 
     58 O          35.0464   34.1149    4.2488 O.2       9 UNK        -0.5390 
     59 N          33.9383   32.3408    3.3468 N.am      10 UNK        -0.4215 
     60 CA         34.5429   31.1996    4.0322 C.3       10 UNK         0.0240 
     61 CB         36.0861   31.2166    3.9718 C.3       10 UNK        -0.1982 
     62 C          34.0258   29.9388    3.3317 C.2       10 UNK         0.4970 
     63 O          34.0091   29.9003    2.0987 O.2       10 UNK        -0.4916 
     64 N          33.6355   28.9284    4.1142 N.am      11 UNK        -0.4279 
     65 CA         33.2231   27.6168    3.5986 C.3       11 UNK         0.1003 
     66 C          34.4588   26.7921    3.1522 C.2       11 UNK         0.5709 
     67 N          34.5031   26.3496    1.9033 N.am      11 UNK        -0.7358 
     68 O          35.3639   26.5315    3.9425 O.2       11 UNK        -0.4999 
     69 C69        32.3712   26.8338    4.6300 C.3       12 UNK        -0.0954 
     70 S70        30.7954   27.6742    4.9831 S.3       12 UNK        -0.2268 
     71 C71        30.0857   26.5732    6.2436 C.3       12 UNK         0.0203 
     72 H72        24.0014   18.8450   -0.8187 H         1 UNK         0.0888 
     73 H73        23.8720   20.5813   -0.5322 H         1 UNK         0.0888 
     74 H74        24.2713   19.9817   -2.1430 H         1 UNK         0.0888 
     75 H75        25.6675   21.4334    0.4946 H         1 UNK         0.3017 
     76 H76        28.1652   20.0087    0.7086 H         1 UNK         0.0873 
     77 H77        27.5241   22.8844    1.5888 H         1 UNK         0.0745 
     78 H78        27.1317   21.4592    2.5174 H         1 UNK         0.0745 
     79 H79        28.3740   21.2383    4.5782 H         1 UNK         0.0705 
     80 H80        30.0232   21.7198    4.8622 H         1 UNK         0.0705 
     81 H81        30.6005   24.0362    5.3472 H         1 UNK         0.1334 
     82 H82        27.4320   26.8947    5.7807 H         1 UNK         0.1417 
     83 H83        26.6070   23.0265    4.1403 H         1 UNK         0.1562 
     84 H84        25.1310   26.2327    5.3452 H         1 UNK         0.0748 
     85 H85        24.7744   24.5567    5.0244 H         1 UNK         0.0748 
     86 H86        25.5716   27.9835    3.7615 H         1 UNK         0.0940 
     87 H87        25.0661   27.9993    2.0961 H         1 UNK         0.0940 
     88 H88        27.7978   27.0840    3.1170 H         1 UNK         0.0703 
     89 H89        28.0908   25.9891    1.2661 H         1 UNK         0.3081 
     90 H90        26.9288   25.3756   -1.4299 H         1 UNK         0.0719 
     91 H91        28.6256   27.7443   -2.3856 H         1 UNK         0.0809 
     92 H92        28.3364   26.2701   -3.3091 H         1 UNK         0.0809 
     93 H93        27.0015   27.3417   -2.9221 H         1 UNK         0.0809 
     94 H94        28.8296   24.4043   -0.8965 H         1 UNK         0.2990 
     95 H95        32.1068   25.3482   -0.3415 H         1 UNK         0.0690 
     96 H96        32.0976   24.4068    1.9647 H         1 UNK         0.0788 
     97 H97        30.3481   24.6125    2.0710 H         1 UNK         0.0788 
     98 H98        31.3847   26.0137    1.9712 H         1 UNK         0.0788 
     99 H99        30.6671   22.9431    0.3359 H         1 UNK         0.2993 
    100 H100       30.1681   21.6901   -2.8727 H         1 UNK         0.0949 
    101 H101       32.6111   21.1571   -2.7348 H         1 UNK         0.0767 
    102 H102       32.4403   20.7516   -1.0324 H         1 UNK         0.0767 
    103 H103       31.6352   19.7766   -2.2635 H         1 UNK         0.0767 
    104 H104       30.0755   20.3899   -0.3491 H         1 UNK         0.3013 
    105 H105       29.3099   28.4310    1.1397 H         1 UNK         0.3121 
    106 H106       28.7217   31.2370    1.1088 H         1 UNK         0.0774 
    107 H107       31.3063   29.7474    0.4262 H         1 UNK         0.0815 
    108 H108       30.8939   31.3867   -0.0586 H         1 UNK         0.0815 
    109 H109       29.9726   30.0334   -0.6916 H         1 UNK         0.0815 
    110 H110       28.6386   30.5179    3.7787 H         1 UNK         0.2987 
    111 H111       31.0037   30.8008    5.2888 H         1 UNK         0.0949 
    112 H112       29.4234   31.0645    7.2106 H         1 UNK         0.0806 
    113 H113       28.0895   31.3323    6.0958 H         1 UNK         0.0806 
    114 H114       28.9023   29.7695    6.1473 H         1 UNK         0.0806 
    115 H115       29.0695   33.2815    3.8277 H         1 UNK         0.3010 
    116 H116       29.9046   35.5314    5.4074 H         1 UNK         0.0829 
    117 H117       27.9057   35.6058    3.9274 H         1 UNK         0.0813 
    118 H118       29.0559   36.8452    3.4565 H         1 UNK         0.0813 
    119 H119       28.9213   35.3747    2.5028 H         1 UNK         0.0813 
    120 H120       31.4908   33.6564    2.9110 H         1 UNK         0.3038 
    121 H121       33.7613   35.6014    2.7383 H         1 UNK         0.0769 
    122 H122       32.9821   33.2586    0.9100 H         1 UNK         0.0811 
    123 H123       34.4586   34.2057    0.7750 H         1 UNK         0.0811 
    124 H124       32.8996   34.9721    0.5216 H         1 UNK         0.0811 
    125 H125       33.1770   32.0719    2.7254 H         1 UNK         0.3204 
    126 H126       34.2107   31.2074    5.0719 H         1 UNK         0.0748 
    127 H127       36.5029   30.2836    4.3540 H         1 UNK         0.0771 
    128 H128       36.4468   31.3400    2.9498 H         1 UNK         0.0771 
    129 H129       36.5087   32.0177    4.5772 H         1 UNK         0.0771 
    130 H130       33.7046   29.0114    5.1172 H         1 UNK         0.2980 
    131 H131       32.5961   27.7939    2.7223 H         1 UNK         0.0545 
    132 H132       35.2977   25.8055    1.6066 H         1 UNK         0.3459 
    133 H133       33.7834   26.5887    1.2409 H         1 UNK         0.3459 
    134 H134       32.1433   25.8310    4.2659 H         1 UNK         0.0616 
    135 H135       32.9218   26.7049    5.5636 H         1 UNK         0.0616 
    136 H136       30.8785   26.0589    6.7886 H         1 UNK         0.0634 
    137 H137       29.5623   27.1843    6.9805 H         1 UNK         0.0634 
@<TRIPOS>BOND
     1    1    2 1    
     2    1   72 1    
     3    1   73 1    
     4    1   74 1    
     5    2    3 2    
     6    2    4 am   BACKBONE|DICT|INTERRES
     7    4    5 1    
     8    4   75 1    
     9    5    6 1    
    10    5   35 1    
    11    5   76 1    
    12    6    7 1    
    13    6   77 1    
    14    6   78 1    
    15    7    8 1    
    16    8    9 1    
    17    8   79 1    
    18    8   80 1    
    19    9   10 ar   
    20    9   14 ar   
    21   10   11 ar   
    22   10   81 1    
    23   11   12 ar   
    24   11   71 1    
    25   12   13 ar   
    26   12   82 1    
    27   13   14 ar   
    28   13   15 1    
    29   14   83 1    
    30   15   16 1    
    31   15   84 1    
    32   15   85 1    
    33   16   17 1    
    34   17   18 1    
    35   17   86 1    
    36   17   87 1    
    37   18   19 1    
    38   18   37 1    
    39   18   88 1    
    40   19   20 am   BACKBONE|DICT|INTERRES
    41   19   89 1    
    42   20   21 2    
    43   20   22 1    
    44   22   23 1    
    45   22   24 1    
    46   22   90 1    
    47   23   91 1    
    48   23   92 1    
    49   23   93 1    
    50   24   25 am   BACKBONE|DICT|INTERRES
    51   24   94 1    
    52   25   26 2    
    53   25   27 1    
    54   27   28 1    
    55   27   29 1    
    56   27   95 1    
    57   28   96 1    
    58   28   97 1    
    59   28   98 1    
    60   29   30 am   BACKBONE|DICT|INTERRES
    61   29   99 1    
    62   30   31 2    
    63   30   32 1    
    64   32   33 1    
    65   32   34 1    
    66   32  100 1    
    67   33  101 1    
    68   33  102 1    
    69   33  103 1    
    70   34   35 am   BACKBONE|DICT|INTERRES
    71   34  104 1    
    72   35   36 2    
    73   37   38 2    
    74   37   39 am   BACKBONE|DICT|INTERRES
    75   39   40 1    
    76   39  105 1    
    77   40   41 1    
    78   40   42 1    
    79   40  106 1    
    80   41  107 1    
    81   41  108 1    
    82   41  109 1    
    83   42   43 2    
    84   42   44 am   BACKBONE|DICT|INTERRES
    85   44   45 1    
    86   44  110 1    
    87   45   46 1    
    88   45   47 1    
    89   45  111 1    
    90   46  112 1    
    91   46  113 1    
    92   46  114 1    
    93   47   48 2    
    94   47   49 am   BACKBONE|DICT|INTERRES
    95   49   50 1    
    96   49  115 1    
    97   50   51 1    
    98   50   52 1    
    99   50  116 1    
   100   51  117 1    
   101   51  118 1    
   102   51  119 1    
   103   52   53 2    
   104   52   54 am   BACKBONE|DICT|INTERRES
   105   54   55 1    
   106   54  120 1    
   107   55   56 1    
   108   55   57 1    
   109   55  121 1    
   110   56  122 1    
   111   56  123 1    
   112   56  124 1    
   113   57   58 2    
   114   57   59 am   BACKBONE|DICT|INTERRES
   115   59   60 1    
   116   59  125 1    
   117   60   61 1    
   118   60   62 1    
   119   60  126 1    
   120   61  127 1    
   121   61  128 1    
   122   61  129 1    
   123   62   63 2    
   124   62   64 am   BACKBONE|DICT|INTERRES
   125   64   65 1    
   126   64  130 1    
   127   65   66 1    
   128   65   69 1    
   129   65  131 1    
   130   66   67 am   BACKBONE|DICT|INTERRES
   131   66   68 2    
   132   67  132 1    
   133   67  133 1    
   134   69   70 1    
   135   69  134 1    
   136   69  135 1    
   137   70   71 1    
   138   71  136 1    
   139   71  137 1    
@<TRIPOS>SUBSTRUCTURE
     1 UNK         1 GROUP             0       ****    0 ROOT    
