@<TRIPOS>MOLECULE
3R136
137   139    1
SMALL
USER_CHARGES


@<TRIPOS>ATOM
      1 CA         26.9097   22.8896   -1.4652 C.3       0 UNK        -0.1979 
      2 C          28.0939   23.6047   -2.0990 C.2       0 UNK         0.4864 
      3 O          28.1469   23.7321   -3.3229 O.2       0 UNK        -0.5359 
      4 N          29.0456   24.0662   -1.2760 N.am      1 UNK        -0.4318 
      5 CA         30.2660   24.7660   -1.7033 C.3       1 UNK         0.0824 
      6 C6         31.3353   24.7867   -0.5844 C.3       12 UNK        -0.0944 
      7 S7         31.9043   23.0951   -0.2089 S.3       12 UNK        -0.2672 
      8 C8         32.9892   23.3727    1.2235 C.3       12 UNK         0.0333 
      9 C9         32.2027   23.5652    2.5121 C.ar      12 UNK        -0.0807 
     10 C10        32.2182   24.7978    3.1713 C.ar      12 UNK        -0.0894 
     11 C11        31.5369   24.9622    4.3804 C.ar      12 UNK        -0.0804 
     12 C12        30.8361   23.8843    4.9286 C.ar      12 UNK        -0.0824 
     13 C13        30.7859   22.6548    4.2635 C.ar      12 UNK        -0.0762 
     14 C14        31.4811   22.4990    3.0605 C.ar      12 UNK        -0.0782 
     15 C15        29.9770   21.4983    4.8391 C.3       12 UNK         0.0230 
     16 S16        28.2863   21.4322    4.1508 S.3       12 UNK        -0.2608 
     17 C17        27.5599   22.9598    4.8342 C.3       12 UNK        -0.0989 
     18 CA         27.6124   24.1149    3.7936 C.3       5 UNK         0.0716 
     19 N          26.5787   24.0238    2.7592 N.am      5 UNK        -0.4135 
     20 C          25.2580   24.1795    2.9108 C.2       4 UNK         0.5031 
     21 O          24.6983   24.3743    3.9913 O.2       4 UNK        -0.5229 
     22 CA         24.4315   24.1438    1.6094 C.3       4 UNK         0.0329 
     23 CB         22.9811   23.6907    1.8575 C.3       4 UNK        -0.2001 
     24 N          24.4136   25.4439    0.9313 N.am      4 UNK        -0.4303 
     25 C          25.4740   26.0573    0.3896 C.2       3 UNK         0.5044 
     26 O          26.6107   25.5686    0.3738 O.2       3 UNK        -0.5152 
     27 CA         25.2186   27.4346   -0.2491 C.3       3 UNK         0.0319 
     28 CB         24.7062   28.4583    0.7774 C.3       3 UNK        -0.2001 
     29 N          26.4808   27.9189   -0.7959 N.am      3 UNK        -0.4354 
     30 C          26.7946   27.9568   -2.0946 C.2       2 UNK         0.4964 
     31 O          25.9815   27.8634   -3.0145 O.2       2 UNK        -0.5047 
     32 CA         28.2912   27.9984   -2.4032 C.3       2 UNK         0.0288 
     33 CB         28.9702   29.2773   -1.8815 C.3       2 UNK        -0.2113 
     34 N          28.8794   26.7963   -1.8154 N.am      2 UNK        -0.4145 
     35 C          29.9843   26.1819   -2.2519 C.2       1 UNK         0.5006 
     36 O          30.7495   26.6665   -3.0879 O.2       1 UNK        -0.5103 
     37 C          27.6827   25.5266    4.4146 C.2       5 UNK         0.5055 
     38 O          27.7463   25.6740    5.6368 O.2       5 UNK        -0.5220 
     39 N          27.7097   26.5432    3.5464 N.am      6 UNK        -0.4450 
     40 CA         27.9698   27.9369    3.8835 C.3       6 UNK         0.0367 
     41 CB         26.7018   28.6074    4.4430 C.3       6 UNK        -0.1929 
     42 C          28.4852   28.6395    2.6242 C.2       6 UNK         0.5070 
     43 O          28.1860   28.1972    1.5113 O.2       6 UNK        -0.5237 
     44 N          29.2458   29.7175    2.8210 N.am      7 UNK        -0.4739 
     45 CA         29.8357   30.5533    1.7805 C.3       7 UNK         0.0276 
     46 CB         31.0258   29.8242    1.1233 C.3       7 UNK        -0.1927 
     47 C          30.2879   31.8732    2.4177 C.2       7 UNK         0.5013 
     48 O          30.2975   31.9908    3.6465 O.2       7 UNK        -0.5193 
     49 N          30.6614   32.8415    1.5718 N.am      8 UNK        -0.4253 
     50 CA         31.2352   34.1194    2.0020 C.3       8 UNK         0.0242 
     51 CB         31.0836   35.1570    0.8770 C.3       8 UNK        -0.2000 
     52 C          32.7102   33.9874    2.4212 C.2       8 UNK         0.4948 
     53 O          33.1267   34.6512    3.3713 O.2       8 UNK        -0.5275 
     54 N          33.4698   33.1524    1.6971 N.am      9 UNK        -0.4246 
     55 CA         34.8922   32.9054    1.9353 C.3       9 UNK         0.0261 
     56 CB         35.6090   32.6543    0.5957 C.3       9 UNK        -0.1959 
     57 C          35.0977   31.7427    2.9168 C.2       9 UNK         0.5033 
     58 O          35.6285   31.9559    4.0088 O.2       9 UNK        -0.5390 
     59 N          34.6885   30.5316    2.5097 N.am      10 UNK        -0.4215 
     60 CA         34.8135   29.3094    3.3073 C.3       10 UNK         0.0240 
     61 CB         34.5048   28.0794    2.4368 C.3       10 UNK        -0.1982 
     62 C          33.9032   29.3476    4.5441 C.2       10 UNK         0.4970 
     63 O          32.7538   29.7773    4.4392 O.2       10 UNK        -0.4916 
     64 N          34.4425   28.8871    5.6782 N.am      11 UNK        -0.4279 
     65 CA         33.8048   28.8843    7.0075 C.3       11 UNK         0.1003 
     66 C          33.6190   30.2977    7.6427 C.2       11 UNK         0.5709 
     67 N          34.1937   31.3612    7.0915 N.am      11 UNK        -0.7358 
     68 O          32.9738   30.4309    8.6802 O.2       11 UNK        -0.4999 
     69 C69        32.5062   28.0268    7.0803 C.3       12 UNK        -0.0954 
     70 S70        32.7311   26.3229    6.4652 S.3       12 UNK        -0.2268 
     71 C71        31.5425   26.3057    5.0905 C.3       12 UNK         0.0203 
     72 H72        26.0007   23.4735   -1.6077 H         1 UNK         0.0888 
     73 H73        26.7664   21.9140   -1.9288 H         1 UNK         0.0888 
     74 H74        27.0526   22.7373   -0.3959 H         1 UNK         0.0888 
     75 H75        28.9528   23.9240   -0.2811 H         1 UNK         0.3017 
     76 H76        30.6803   24.2037   -2.5435 H         1 UNK         0.0873 
     77 H77        32.2051   25.3732   -0.8875 H         1 UNK         0.0745 
     78 H78        30.9434   25.2524    0.3221 H         1 UNK         0.0745 
     79 H79        33.6443   22.5079    1.3376 H         1 UNK         0.0705 
     80 H80        33.6418   24.2249    1.0265 H         1 UNK         0.0705 
     81 H81        32.7670   25.6270    2.7481 H         1 UNK         0.1334 
     82 H82        30.3126   24.0146    5.8659 H         1 UNK         0.1417 
     83 H83        31.4562   21.5485    2.5445 H         1 UNK         0.1562 
     84 H84        29.9279   21.5693    5.9268 H         1 UNK         0.0748 
     85 H85        30.4806   20.5550    4.6222 H         1 UNK         0.0748 
     86 H86        28.0967   23.2034    5.7515 H         1 UNK         0.0940 
     87 H87        26.5347   22.7604    5.1483 H         1 UNK         0.0940 
     88 H88        28.5537   24.0289    3.2496 H         1 UNK         0.0703 
     89 H89        26.9199   23.9849    1.8078 H         1 UNK         0.3081 
     90 H90        24.8923   23.4159    0.9384 H         1 UNK         0.0719 
     91 H91        22.4342   24.4003    2.4798 H         1 UNK         0.0809 
     92 H92        22.4353   23.5756    0.9208 H         1 UNK         0.0809 
     93 H93        22.9562   22.7257    2.3657 H         1 UNK         0.0809 
     94 H94        23.5238   25.9206    0.9121 H         1 UNK         0.2990 
     95 H95        24.4718   27.3098   -1.0358 H         1 UNK         0.0690 
     96 H96        24.5147   29.4215    0.3042 H         1 UNK         0.0788 
     97 H97        25.4325   28.6229    1.5712 H         1 UNK         0.0788 
     98 H98        23.7730   28.1380    1.2413 H         1 UNK         0.0788 
     99 H99        27.2303   27.9883   -0.1086 H         1 UNK         0.2993 
    100 H100       28.4083   27.9563   -3.4886 H         1 UNK         0.0949 
    101 H101       28.5139   30.1662   -2.3185 H         1 UNK         0.0767 
    102 H102       28.8843   29.3628   -0.8008 H         1 UNK         0.0767 
    103 H103       30.0303   29.2968   -2.1347 H         1 UNK         0.0767 
    104 H104       28.2959   26.3095   -1.1439 H         1 UNK         0.3013 
    105 H105       27.6671   26.3660    2.5480 H         1 UNK         0.3121 
    106 H106       28.7595   27.9789    4.6365 H         1 UNK         0.0774 
    107 H107       26.8519   29.6777    4.5900 H         1 UNK         0.0815 
    108 H108       25.8476   28.4819    3.7798 H         1 UNK         0.0815 
    109 H109       26.4294   28.1855    5.4104 H         1 UNK         0.0815 
    110 H110       29.4342   30.0539    3.7589 H         1 UNK         0.2987 
    111 H111       29.0699   30.7789    1.0361 H         1 UNK         0.0949 
    112 H112       31.4345   30.3980    0.2913 H         1 UNK         0.0806 
    113 H113       31.8288   29.6668    1.8419 H         1 UNK         0.0806 
    114 H114       30.7401   28.8496    0.7274 H         1 UNK         0.0806 
    115 H115       30.5895   32.6822    0.5770 H         1 UNK         0.3010 
    116 H116       30.6755   34.4795    2.8685 H         1 UNK         0.0829 
    117 H117       30.0356   35.3129    0.6201 H         1 UNK         0.0813 
    118 H118       31.4871   36.1235    1.1828 H         1 UNK         0.0813 
    119 H119       31.6110   34.8567   -0.0293 H         1 UNK         0.0813 
    120 H120       33.0373   32.6512    0.9363 H         1 UNK         0.3038 
    121 H121       35.3437   33.7945    2.3819 H         1 UNK         0.0769 
    122 H122       35.1788   31.8194    0.0419 H         1 UNK         0.0811 
    123 H123       36.6651   32.4315    0.7548 H         1 UNK         0.0811 
    124 H124       35.5607   33.5352   -0.0448 H         1 UNK         0.0811 
    125 H125       34.2442   30.4429    1.6093 H         1 UNK         0.3204 
    126 H126       35.8529   29.2384    3.6359 H         1 UNK         0.0748 
    127 H127       35.1481   28.0414    1.5575 H         1 UNK         0.0771 
    128 H128       34.6742   27.1596    2.9983 H         1 UNK         0.0771 
    129 H129       33.4693   28.0645    2.0977 H         1 UNK         0.0771 
    130 H130       35.3959   28.5554    5.6618 H         1 UNK         0.2980 
    131 H131       34.5333   28.3988    7.6575 H         1 UNK         0.0545 
    132 H132       34.7163   31.2821    6.2315 H         1 UNK         0.3459 
    133 H133       34.0730   32.2629    7.5244 H         1 UNK         0.3459 
    134 H134       32.1643   27.9479    8.1136 H         1 UNK         0.0616 
    135 H135       31.6953   28.5143    6.5369 H         1 UNK         0.0616 
    136 H136       30.5458   26.5183    5.4788 H         1 UNK         0.0634 
    137 H137       31.7809   27.1071    4.3897 H         1 UNK         0.0634 
@<TRIPOS>BOND
     1    1    2 1    
     2    1   72 1    
     3    1   73 1    
     4    1   74 1    
     5    2    3 2    
     6    2    4 am   BACKBONE|DICT|INTERRES
     7    4    5 1    
     8    4   75 1    
     9    5    6 1    
    10    5   35 1    
    11    5   76 1    
    12    6    7 1    
    13    6   77 1    
    14    6   78 1    
    15    7    8 1    
    16    8    9 1    
    17    8   79 1    
    18    8   80 1    
    19    9   10 ar   
    20    9   14 ar   
    21   10   11 ar   
    22   10   81 1    
    23   11   12 ar   
    24   11   71 1    
    25   12   13 ar   
    26   12   82 1    
    27   13   14 ar   
    28   13   15 1    
    29   14   83 1    
    30   15   16 1    
    31   15   84 1    
    32   15   85 1    
    33   16   17 1    
    34   17   18 1    
    35   17   86 1    
    36   17   87 1    
    37   18   19 1    
    38   18   37 1    
    39   18   88 1    
    40   19   20 am   BACKBONE|DICT|INTERRES
    41   19   89 1    
    42   20   21 2    
    43   20   22 1    
    44   22   23 1    
    45   22   24 1    
    46   22   90 1    
    47   23   91 1    
    48   23   92 1    
    49   23   93 1    
    50   24   25 am   BACKBONE|DICT|INTERRES
    51   24   94 1    
    52   25   26 2    
    53   25   27 1    
    54   27   28 1    
    55   27   29 1    
    56   27   95 1    
    57   28   96 1    
    58   28   97 1    
    59   28   98 1    
    60   29   30 am   BACKBONE|DICT|INTERRES
    61   29   99 1    
    62   30   31 2    
    63   30   32 1    
    64   32   33 1    
    65   32   34 1    
    66   32  100 1    
    67   33  101 1    
    68   33  102 1    
    69   33  103 1    
    70   34   35 am   BACKBONE|DICT|INTERRES
    71   34  104 1    
    72   35   36 2    
    73   37   38 2    
    74   37   39 am   BACKBONE|DICT|INTERRES
    75   39   40 1    
    76   39  105 1    
    77   40   41 1    
    78   40   42 1    
    79   40  106 1    
    80   41  107 1    
    81   41  108 1    
    82   41  109 1    
    83   42   43 2    
    84   42   44 am   BACKBONE|DICT|INTERRES
    85   44   45 1    
    86   44  110 1    
    87   45   46 1    
    88   45   47 1    
    89   45  111 1    
    90   46  112 1    
    91   46  113 1    
    92   46  114 1    
    93   47   48 2    
    94   47   49 am   BACKBONE|DICT|INTERRES
    95   49   50 1    
    96   49  115 1    
    97   50   51 1    
    98   50   52 1    
    99   50  116 1    
   100   51  117 1    
   101   51  118 1    
   102   51  119 1    
   103   52   53 2    
   104   52   54 am   BACKBONE|DICT|INTERRES
   105   54   55 1    
   106   54  120 1    
   107   55   56 1    
   108   55   57 1    
   109   55  121 1    
   110   56  122 1    
   111   56  123 1    
   112   56  124 1    
   113   57   58 2    
   114   57   59 am   BACKBONE|DICT|INTERRES
   115   59   60 1    
   116   59  125 1    
   117   60   61 1    
   118   60   62 1    
   119   60  126 1    
   120   61  127 1    
   121   61  128 1    
   122   61  129 1    
   123   62   63 2    
   124   62   64 am   BACKBONE|DICT|INTERRES
   125   64   65 1    
   126   64  130 1    
   127   65   66 1    
   128   65   69 1    
   129   65  131 1    
   130   66   67 am   BACKBONE|DICT|INTERRES
   131   66   68 2    
   132   67  132 1    
   133   67  133 1    
   134   69   70 1    
   135   69  134 1    
   136   69  135 1    
   137   70   71 1    
   138   71  136 1    
   139   71  137 1    
@<TRIPOS>SUBSTRUCTURE
     1 UNK         1 GROUP             0       ****    0 ROOT    
