@<TRIPOS>MOLECULE
3R136
137   139    1
SMALL
USER_CHARGES


@<TRIPOS>ATOM
      1 CA         26.7430   22.4356   -1.9217 C.3       0 UNK        -0.1979 
      2 C          27.6310   23.1259   -0.8984 C.2       0 UNK         0.4864 
      3 O          27.3540   24.2676   -0.5230 O.2       0 UNK        -0.5359 
      4 N          28.6867   22.4392   -0.4414 N.am      1 UNK        -0.4318 
      5 CA         29.6511   22.8997    0.5642 C.3       1 UNK         0.0824 
      6 C6         30.7470   21.8360    0.8207 C.3       12 UNK        -0.0944 
      7 S7         31.8520   21.6759   -0.6236 S.3       12 UNK        -0.2672 
      8 C8         33.3170   22.6230   -0.0895 C.3       12 UNK         0.0333 
      9 C9         32.9577   24.0321    0.3635 C.ar      12 UNK        -0.0807 
     10 C10        32.9357   24.3435    1.7252 C.ar      12 UNK        -0.0894 
     11 C11        32.5702   25.6199    2.1566 C.ar      12 UNK        -0.0804 
     12 C12        32.2408   26.5966    1.2120 C.ar      12 UNK        -0.0824 
     13 C13        32.2693   26.3042   -0.1583 C.ar      12 UNK        -0.0762 
     14 C14        32.6324   25.0179   -0.5727 C.ar      12 UNK        -0.0782 
     15 C15        31.9513   27.3650   -1.2119 C.3       12 UNK         0.0230 
     16 S16        30.5743   28.4796   -0.7774 S.3       12 UNK        -0.2608 
     17 C17        29.1940   27.3003   -0.5977 C.3       12 UNK        -0.0989 
     18 CA         27.8150   28.0026   -0.5137 C.3       5 UNK         0.0716 
     19 N          26.7301   27.0304   -0.6326 N.am      5 UNK        -0.4135 
     20 C          25.4551   27.3123   -0.9355 C.2       4 UNK         0.5031 
     21 O          25.0581   28.4370   -1.2458 O.2       4 UNK        -0.5229 
     22 CA         24.4506   26.1554   -0.8581 C.3       4 UNK         0.0329 
     23 CB         24.4201   25.3819   -2.1860 C.3       4 UNK        -0.2001 
     24 N          24.7944   25.2447    0.2372 N.am      4 UNK        -0.4303 
     25 C          24.1424   25.1727    1.4045 C.2       3 UNK         0.5044 
     26 O          23.1307   25.8223    1.6725 O.2       3 UNK        -0.5152 
     27 CA         24.7138   24.2065    2.4552 C.3       3 UNK         0.0319 
     28 CB         24.3777   22.7503    2.0936 C.3       3 UNK        -0.2001 
     29 N          26.1601   24.3362    2.6399 N.am      3 UNK        -0.4354 
     30 C          26.7956   25.3920    3.1652 C.2       2 UNK         0.4964 
     31 O          26.2138   26.4039    3.5555 O.2       2 UNK        -0.5047 
     32 CA         28.3338   25.3169    3.2969 C.3       2 UNK         0.0288 
     33 CB         28.7456   24.7757    4.6797 C.3       2 UNK        -0.2113 
     34 N          29.0244   24.5953    2.2151 N.am      2 UNK        -0.4145 
     35 C          28.9418   23.3008    1.8711 C.2       1 UNK         0.5006 
     36 O          28.2880   22.4563    2.4874 O.2       1 UNK        -0.5103 
     37 C          27.6329   28.8428    0.7704 C.2       5 UNK         0.5055 
     38 O          28.2948   28.5863    1.7765 O.2       5 UNK        -0.5220 
     39 N          26.7164   29.8187    0.7157 N.am      6 UNK        -0.4450 
     40 CA         26.4562   30.7792    1.7908 C.3       6 UNK         0.0367 
     41 CB         25.1364   31.5158    1.5134 C.3       6 UNK        -0.1929 
     42 C          27.6098   31.7803    1.9723 C.2       6 UNK         0.5070 
     43 O          27.9089   32.1669    3.1019 O.2       6 UNK        -0.5237 
     44 N          28.2718   32.1486    0.8663 N.am      7 UNK        -0.4739 
     45 CA         29.4669   32.9983    0.8299 C.3       7 UNK         0.0276 
     46 CB         29.5073   33.7406   -0.5191 C.3       7 UNK        -0.1927 
     47 C          30.7464   32.1781    1.0960 C.2       7 UNK         0.5013 
     48 O          31.7053   32.2534    0.3250 O.2       7 UNK        -0.5193 
     49 N          30.7181   31.3795    2.1679 N.am      8 UNK        -0.4253 
     50 CA         31.7873   30.4793    2.5872 C.3       8 UNK         0.0242 
     51 CB         31.2257   29.5232    3.6500 C.3       8 UNK        -0.2000 
     52 C          33.0001   31.2305    3.1514 C.2       8 UNK         0.4948 
     53 O          32.8394   32.2701    3.7972 O.2       8 UNK        -0.5275 
     54 N          34.1907   30.6434    2.9774 N.am      9 UNK        -0.4246 
     55 CA         35.4560   31.1149    3.5468 C.3       9 UNK         0.0261 
     56 CB         36.6187   30.5547    2.7061 C.3       9 UNK        -0.1959 
     57 C          35.5637   30.7324    5.0359 C.2       9 UNK         0.5033 
     58 O          36.4147   29.9229    5.4059 O.2       9 UNK        -0.5390 
     59 N          34.6454   31.2750    5.8481 N.am      10 UNK        -0.4215 
     60 CA         34.4361   31.0589    7.2897 C.3       10 UNK         0.0240 
     61 CB         35.6901   31.4420    8.1025 C.3       10 UNK        -0.1982 
     62 C          33.9197   29.6575    7.6818 C.2       10 UNK         0.4970 
     63 O          33.4860   29.4867    8.8216 O.2       10 UNK        -0.4916 
     64 N          33.9411   28.6939    6.7538 N.am      11 UNK        -0.4279 
     65 CA         33.4512   27.3173    6.9226 C.3       11 UNK         0.1003 
     66 C          31.9022   27.1468    6.9483 C.2       11 UNK         0.5709 
     67 N          31.1086   28.1998    6.7971 N.am      11 UNK        -0.7358 
     68 O          31.4103   26.0348    7.1224 O.2       11 UNK        -0.4999 
     69 C69        34.1443   26.3458    5.9285 C.3       12 UNK        -0.0954 
     70 S70        34.0246   26.8261    4.1687 S.3       12 UNK        -0.2268 
     71 C71        32.5300   25.9297    3.6444 C.3       12 UNK         0.0203 
     72 H72        27.0321   21.3964   -2.0767 H         1 UNK         0.0888 
     73 H73        25.7052   22.4515   -1.5901 H         1 UNK         0.0888 
     74 H74        26.8051   22.9516   -2.8792 H         1 UNK         0.0888 
     75 H75        28.8533   21.5074   -0.7928 H         1 UNK         0.3017 
     76 H76        30.1242   23.7941    0.1552 H         1 UNK         0.0873 
     77 H77        30.2970   20.8630    1.0269 H         1 UNK         0.0745 
     78 H78        31.3408   22.0752    1.7039 H         1 UNK         0.0745 
     79 H79        33.8205   22.0774    0.7102 H         1 UNK         0.0705 
     80 H80        34.0269   22.6752   -0.9161 H         1 UNK         0.0705 
     81 H81        33.1929   23.5864    2.4536 H         1 UNK         0.1334 
     82 H82        31.9665   27.5856    1.5468 H         1 UNK         0.1417 
     83 H83        32.6573   24.7758   -1.6269 H         1 UNK         0.1562 
     84 H84        31.7199   26.8957   -2.1695 H         1 UNK         0.0748 
     85 H85        32.8455   27.9680   -1.3738 H         1 UNK         0.0748 
     86 H86        29.3681   26.6760    0.2782 H         1 UNK         0.0940 
     87 H87        29.2135   26.6274   -1.4569 H         1 UNK         0.0940 
     88 H88        27.7430   28.6821   -1.3660 H         1 UNK         0.0703 
     89 H89        26.9773   26.0609   -0.4483 H         1 UNK         0.3081 
     90 H90        23.4598   26.5855   -0.6972 H         1 UNK         0.0719 
     91 H91        25.4033   24.9958   -2.4543 H         1 UNK         0.0809 
     92 H92        23.7284   24.5407   -2.1400 H         1 UNK         0.0809 
     93 H93        24.0927   26.0273   -3.0021 H         1 UNK         0.0809 
     94 H94        25.6440   24.6996    0.1179 H         1 UNK         0.2990 
     95 H95        24.2368   24.4369    3.4102 H         1 UNK         0.0690 
     96 H96        23.3033   22.6193    1.9574 H         1 UNK         0.0788 
     97 H97        24.6892   22.0652    2.8824 H         1 UNK         0.0788 
     98 H98        24.8654   22.4385    1.1691 H         1 UNK         0.0788 
     99 H99        26.7306   23.5287    2.4064 H         1 UNK         0.2993 
    100 H100       28.6920   26.3460    3.2335 H         1 UNK         0.0949 
    101 H101       29.8278   24.7957    4.8086 H         1 UNK         0.0767 
    102 H102       28.3159   25.3828    5.4776 H         1 UNK         0.0767 
    103 H103       28.4077   23.7508    4.8351 H         1 UNK         0.0767 
    104 H104       29.5817   25.1884    1.6177 H         1 UNK         0.3013 
    105 H105       26.1388   29.8790   -0.1157 H         1 UNK         0.3121 
    106 H106       26.3488   30.2226    2.7247 H         1 UNK         0.0774 
    107 H107       25.1759   32.0825    0.5823 H         1 UNK         0.0815 
    108 H108       24.9082   32.2201    2.3146 H         1 UNK         0.0815 
    109 H109       24.3003   30.8193    1.4477 H         1 UNK         0.0815 
    110 H110       27.9813   31.7465   -0.0131 H         1 UNK         0.2987 
    111 H111       29.3983   33.7485    1.6210 H         1 UNK         0.0949 
    112 H112       29.5999   33.0494   -1.3578 H         1 UNK         0.0806 
    113 H113       28.6072   34.3362   -0.6717 H         1 UNK         0.0806 
    114 H114       30.3562   34.4242   -0.5640 H         1 UNK         0.0806 
    115 H115       29.8908   31.4106    2.7511 H         1 UNK         0.3010 
    116 H116       32.1067   29.9043    1.7160 H         1 UNK         0.0829 
    117 H117       30.4721   28.8579    3.2298 H         1 UNK         0.0813 
    118 H118       32.0101   28.8982    4.0724 H         1 UNK         0.0813 
    119 H119       30.7676   30.0666    4.4772 H         1 UNK         0.0813 
    120 H120       34.2310   29.7669    2.4765 H         1 UNK         0.3038 
    121 H121       35.4930   32.2047    3.4832 H         1 UNK         0.0769 
    122 H122       37.5795   30.8989    3.0912 H         1 UNK         0.0811 
    123 H123       36.6361   29.4638    2.7142 H         1 UNK         0.0811 
    124 H124       36.5516   30.8817    1.6684 H         1 UNK         0.0811 
    125 H125       33.9563   31.8713    5.3948 H         1 UNK         0.3204 
    126 H126       33.6432   31.7534    7.5715 H         1 UNK         0.0748 
    127 H127       35.4842   31.4137    9.1734 H         1 UNK         0.0771 
    128 H128       36.5210   30.7608    7.9172 H         1 UNK         0.0771 
    129 H129       36.0239   32.4521    7.8649 H         1 UNK         0.0771 
    130 H130       34.3599   28.9004    5.8586 H         1 UNK         0.2980 
    131 H131       33.7673   27.0021    7.9186 H         1 UNK         0.0545 
    132 H132       30.1105   28.0694    6.8280 H         1 UNK         0.3459 
    133 H133       31.4964   29.1216    6.6924 H         1 UNK         0.3459 
    134 H134       35.2081   26.3053    6.1672 H         1 UNK         0.0616 
    135 H135       33.7888   25.3227    6.0619 H         1 UNK         0.0616 
    136 H136       32.4335   25.0032    4.2121 H         1 UNK         0.0634 
    137 H137       31.6446   26.5212    3.8793 H         1 UNK         0.0634 
@<TRIPOS>BOND
     1    1    2 1    
     2    1   72 1    
     3    1   73 1    
     4    1   74 1    
     5    2    3 2    
     6    2    4 am   BACKBONE|DICT|INTERRES
     7    4    5 1    
     8    4   75 1    
     9    5    6 1    
    10    5   35 1    
    11    5   76 1    
    12    6    7 1    
    13    6   77 1    
    14    6   78 1    
    15    7    8 1    
    16    8    9 1    
    17    8   79 1    
    18    8   80 1    
    19    9   10 ar   
    20    9   14 ar   
    21   10   11 ar   
    22   10   81 1    
    23   11   12 ar   
    24   11   71 1    
    25   12   13 ar   
    26   12   82 1    
    27   13   14 ar   
    28   13   15 1    
    29   14   83 1    
    30   15   16 1    
    31   15   84 1    
    32   15   85 1    
    33   16   17 1    
    34   17   18 1    
    35   17   86 1    
    36   17   87 1    
    37   18   19 1    
    38   18   37 1    
    39   18   88 1    
    40   19   20 am   BACKBONE|DICT|INTERRES
    41   19   89 1    
    42   20   21 2    
    43   20   22 1    
    44   22   23 1    
    45   22   24 1    
    46   22   90 1    
    47   23   91 1    
    48   23   92 1    
    49   23   93 1    
    50   24   25 am   BACKBONE|DICT|INTERRES
    51   24   94 1    
    52   25   26 2    
    53   25   27 1    
    54   27   28 1    
    55   27   29 1    
    56   27   95 1    
    57   28   96 1    
    58   28   97 1    
    59   28   98 1    
    60   29   30 am   BACKBONE|DICT|INTERRES
    61   29   99 1    
    62   30   31 2    
    63   30   32 1    
    64   32   33 1    
    65   32   34 1    
    66   32  100 1    
    67   33  101 1    
    68   33  102 1    
    69   33  103 1    
    70   34   35 am   BACKBONE|DICT|INTERRES
    71   34  104 1    
    72   35   36 2    
    73   37   38 2    
    74   37   39 am   BACKBONE|DICT|INTERRES
    75   39   40 1    
    76   39  105 1    
    77   40   41 1    
    78   40   42 1    
    79   40  106 1    
    80   41  107 1    
    81   41  108 1    
    82   41  109 1    
    83   42   43 2    
    84   42   44 am   BACKBONE|DICT|INTERRES
    85   44   45 1    
    86   44  110 1    
    87   45   46 1    
    88   45   47 1    
    89   45  111 1    
    90   46  112 1    
    91   46  113 1    
    92   46  114 1    
    93   47   48 2    
    94   47   49 am   BACKBONE|DICT|INTERRES
    95   49   50 1    
    96   49  115 1    
    97   50   51 1    
    98   50   52 1    
    99   50  116 1    
   100   51  117 1    
   101   51  118 1    
   102   51  119 1    
   103   52   53 2    
   104   52   54 am   BACKBONE|DICT|INTERRES
   105   54   55 1    
   106   54  120 1    
   107   55   56 1    
   108   55   57 1    
   109   55  121 1    
   110   56  122 1    
   111   56  123 1    
   112   56  124 1    
   113   57   58 2    
   114   57   59 am   BACKBONE|DICT|INTERRES
   115   59   60 1    
   116   59  125 1    
   117   60   61 1    
   118   60   62 1    
   119   60  126 1    
   120   61  127 1    
   121   61  128 1    
   122   61  129 1    
   123   62   63 2    
   124   62   64 am   BACKBONE|DICT|INTERRES
   125   64   65 1    
   126   64  130 1    
   127   65   66 1    
   128   65   69 1    
   129   65  131 1    
   130   66   67 am   BACKBONE|DICT|INTERRES
   131   66   68 2    
   132   67  132 1    
   133   67  133 1    
   134   69   70 1    
   135   69  134 1    
   136   69  135 1    
   137   70   71 1    
   138   71  136 1    
   139   71  137 1    
@<TRIPOS>SUBSTRUCTURE
     1 UNK         1 GROUP             0       ****    0 ROOT    
