@<TRIPOS>MOLECULE
3R136
137   139    1
SMALL
USER_CHARGES


@<TRIPOS>ATOM
      1 CA         28.0765   21.8664   -3.5068 C.3       0 UNK        -0.1979 
      2 C          28.1076   22.7537   -2.2717 C.2       0 UNK         0.4864 
      3 O          27.0978   22.8611   -1.5746 O.2       0 UNK        -0.5359 
      4 N          29.2506   23.4088   -2.0138 N.am      1 UNK        -0.4318 
      5 CA         29.5424   24.2489   -0.8372 C.3       1 UNK         0.0824 
      6 C6         29.7013   23.4240    0.4715 C.3       12 UNK        -0.0944 
      7 S7         30.9783   22.1316    0.3196 S.3       12 UNK        -0.2672 
      8 C8         30.8675   21.3222    1.9509 C.3       12 UNK         0.0333 
      9 C9         31.3871   22.1822    3.1001 C.ar      12 UNK        -0.0807 
     10 C10        32.5947   22.8824    2.9853 C.ar      12 UNK        -0.0894 
     11 C11        33.0690   23.6589    4.0452 C.ar      12 UNK        -0.0804 
     12 C12        32.3463   23.7109    5.2375 C.ar      12 UNK        -0.0824 
     13 C13        31.1384   23.0223    5.3673 C.ar      12 UNK        -0.0762 
     14 C14        30.6648   22.2558    4.2972 C.ar      12 UNK        -0.0782 
     15 C15        30.3406   23.1353    6.6593 C.3       12 UNK         0.0230 
     16 S16        28.8979   24.2385    6.4924 S.3       12 UNK        -0.2608 
     17 C17        29.6327   25.7545    5.7836 C.3       12 UNK        -0.0989 
     18 CA         29.3997   25.8507    4.2521 C.3       5 UNK         0.0716 
     19 N          27.9868   26.0422    3.9243 N.am      5 UNK        -0.4135 
     20 C          27.1660   25.1200    3.4117 C.2       4 UNK         0.5031 
     21 O          27.4893   23.9505    3.1959 O.2       4 UNK        -0.5229 
     22 CA         25.7427   25.5753    3.0536 C.3       4 UNK         0.0329 
     23 CB         25.4689   27.0809    3.2722 C.3       4 UNK        -0.2001 
     24 N          25.5048   25.2318    1.6571 N.am      4 UNK        -0.4303 
     25 C          24.3200   24.9348    1.1100 C.2       3 UNK         0.5044 
     26 O          23.2662   24.8983    1.7488 O.2       3 UNK        -0.5152 
     27 CA         24.3099   24.6188   -0.4021 C.3       3 UNK         0.0319 
     28 CB         22.9511   24.9163   -1.0723 C.3       3 UNK        -0.2001 
     29 N          25.4155   25.2511   -1.1341 N.am      3 UNK        -0.4354 
     30 C          25.6533   26.5676   -1.2734 C.2       2 UNK         0.4964 
     31 O          24.8733   27.4446   -0.8993 O.2       2 UNK        -0.5047 
     32 CA         26.9988   26.9788   -1.9155 C.3       2 UNK         0.0288 
     33 CB         27.5051   28.3368   -1.3811 C.3       2 UNK        -0.2113 
     34 N          28.0504   25.9556   -1.8025 N.am      2 UNK        -0.4145 
     35 C          28.5471   25.4220   -0.6737 C.2       1 UNK         0.5006 
     36 O          28.2162   25.7943    0.4536 O.2       1 UNK        -0.5103 
     37 C          30.1785   26.9977    3.5834 C.2       5 UNK         0.5055 
     38 O          30.8845   27.7505    4.2606 O.2       5 UNK        -0.5220 
     39 N          29.9644   27.1369    2.2650 N.am      6 UNK        -0.4450 
     40 CA         30.3121   28.2713    1.4041 C.3       6 UNK         0.0367 
     41 CB         31.8369   28.5074    1.3456 C.3       6 UNK        -0.1929 
     42 C          29.4843   29.5287    1.7430 C.2       6 UNK         0.5070 
     43 O          28.6184   29.4908    2.6214 O.2       6 UNK        -0.5237 
     44 N          29.7139   30.6102    0.9942 N.am      7 UNK        -0.4739 
     45 CA         29.0059   31.8815    1.1208 C.3       7 UNK         0.0276 
     46 CB         27.8432   31.9255    0.1144 C.3       7 UNK        -0.1927 
     47 C          29.9994   33.0177    0.8703 C.2       7 UNK         0.5013 
     48 O          30.9562   32.8261    0.1136 O.2       7 UNK        -0.5193 
     49 N          29.7581   34.1687    1.5156 N.am      8 UNK        -0.4253 
     50 CA         30.6141   35.3623    1.5915 C.3       8 UNK         0.0242 
     51 CB         30.8344   36.0122    0.2089 C.3       8 UNK        -0.2000 
     52 C          31.9343   35.0709    2.3251 C.2       8 UNK         0.4948 
     53 O          32.1061   35.5042    3.4648 O.2       8 UNK        -0.5275 
     54 N          32.8073   34.2846    1.6882 N.am      9 UNK        -0.4246 
     55 CA         33.9894   33.6738    2.2860 C.3       9 UNK         0.0261 
     56 CB         35.1193   33.6427    1.2399 C.3       9 UNK        -0.1959 
     57 C          33.5984   32.2719    2.7815 C.2       9 UNK         0.5033 
     58 O          33.9726   31.2724    2.1649 O.2       9 UNK        -0.5390 
     59 N          32.8012   32.2302    3.8582 N.am      10 UNK        -0.4215 
     60 CA         32.3286   31.0023    4.5029 C.3       10 UNK         0.0240 
     61 CB         31.2845   31.3586    5.5724 C.3       10 UNK        -0.1982 
     62 C          33.4893   30.2002    5.1174 C.2       10 UNK         0.4970 
     63 O          34.4241   30.8048    5.6500 O.2       10 UNK        -0.4916 
     64 N          33.3952   28.8691    5.0512 N.am      11 UNK        -0.4279 
     65 CA         34.4109   27.9247    5.5459 C.3       11 UNK         0.1003 
     66 C          33.9019   27.0041    6.6909 C.2       11 UNK         0.5709 
     67 N          32.6919   27.1916    7.2047 N.am      11 UNK        -0.7358 
     68 O          34.6278   26.1243    7.1474 O.2       11 UNK        -0.4999 
     69 C69        35.1000   27.1570    4.3828 C.3       12 UNK        -0.0954 
     70 S70        33.9629   26.1597    3.3598 S.3       12 UNK        -0.2268 
     71 C71        34.3468   24.4667    3.9052 C.3       12 UNK         0.0203 
     72 H72        29.0274   21.8736   -4.0393 H         1 UNK         0.0888 
     73 H73        27.3001   22.2043   -4.1924 H         1 UNK         0.0888 
     74 H74        27.8558   20.8382   -3.2216 H         1 UNK         0.0888 
     75 H75        30.0331   23.2754   -2.6397 H         1 UNK         0.3017 
     76 H76        30.5046   24.7226   -1.0383 H         1 UNK         0.0873 
     77 H77        28.7547   22.9568    0.7504 H         1 UNK         0.0745 
     78 H78        29.9829   24.0701    1.3053 H         1 UNK         0.0745 
     79 H79        29.8311   21.0275    2.1239 H         1 UNK         0.0705 
     80 H80        31.4495   20.4003    1.9210 H         1 UNK         0.0705 
     81 H81        33.1595   22.8361    2.0643 H         1 UNK         0.1334 
     82 H82        32.7139   24.3130    6.0569 H         1 UNK         0.1417 
     83 H83        29.7246   21.7298    4.3960 H         1 UNK         0.1562 
     84 H84        30.9724   23.5000    7.4708 H         1 UNK         0.0748 
     85 H85        29.9967   22.1456    6.9633 H         1 UNK         0.0748 
     86 H86        29.2024   26.6199    6.2906 H         1 UNK         0.0940 
     87 H87        30.6963   25.7746    6.0164 H         1 UNK         0.0940 
     88 H88        29.7697   24.9361    3.7855 H         1 UNK         0.0703 
     89 H89        27.6479   26.9900    4.0159 H         1 UNK         0.3081 
     90 H90        25.0643   25.0002    3.6870 H         1 UNK         0.0719 
     91 H91        26.1189   27.7064    2.6575 H         1 UNK         0.0809 
     92 H92        24.4397   27.3316    3.0143 H         1 UNK         0.0809 
     93 H93        25.6084   27.3659    4.3157 H         1 UNK         0.0809 
     94 H94        26.3369   25.2176    1.0752 H         1 UNK         0.2990 
     95 H95        24.4827   23.5443   -0.4794 H         1 UNK         0.0690 
     96 H96        22.9739   24.6823   -2.1366 H         1 UNK         0.0788 
     97 H97        22.6644   25.9625   -0.9634 H         1 UNK         0.0788 
     98 H98        22.1567   24.3159   -0.6273 H         1 UNK         0.0788 
     99 H99        26.1248   24.5968   -1.4539 H         1 UNK         0.2993 
    100 H100       26.7990   27.0953   -2.9818 H         1 UNK         0.0949 
    101 H101       26.8169   29.1413   -1.6430 H         1 UNK         0.0767 
    102 H102       27.5928   28.3318   -0.2945 H         1 UNK         0.0767 
    103 H103       28.4777   28.5962   -1.7989 H         1 UNK         0.0767 
    104 H104       28.3753   25.5689   -2.6782 H         1 UNK         0.3013 
    105 H105       29.3097   26.4906    1.8300 H         1 UNK         0.3121 
    106 H106       29.9985   27.9813    0.4010 H         1 UNK         0.0774 
    107 H107       32.3512   27.6168    0.9852 H         1 UNK         0.0815 
    108 H108       32.2634   28.7525    2.3150 H         1 UNK         0.0815 
    109 H109       32.0972   29.3194    0.6664 H         1 UNK         0.0815 
    110 H110       30.4713   30.6169    0.3225 H         1 UNK         0.2987 
    111 H111       28.6123   31.9882    2.1346 H         1 UNK         0.0949 
    112 H112       27.1257   31.1271    0.3051 H         1 UNK         0.0806 
    113 H113       28.1955   31.8197   -0.9125 H         1 UNK         0.0806 
    114 H114       27.3018   32.8701    0.1798 H         1 UNK         0.0806 
    115 H115       28.9385   34.2057    2.1066 H         1 UNK         0.3010 
    116 H116       30.0705   36.0850    2.2027 H         1 UNK         0.0829 
    117 H117       29.8851   36.2876   -0.2504 H         1 UNK         0.0813 
    118 H118       31.4251   36.9246    0.3005 H         1 UNK         0.0813 
    119 H119       31.3599   35.3574   -0.4862 H         1 UNK         0.0813 
    120 H120       32.4881   33.8736    0.8153 H         1 UNK         0.3038 
    121 H121       34.3349   34.2573    3.1423 H         1 UNK         0.0769 
    122 H122       34.8325   33.0838    0.3481 H         1 UNK         0.0811 
    123 H123       36.0142   33.1711    1.6479 H         1 UNK         0.0811 
    124 H124       35.3962   34.6498    0.9280 H         1 UNK         0.0811 
    125 H125       32.5515   33.1036    4.3016 H         1 UNK         0.3204 
    126 H126       31.8364   30.3969    3.7421 H         1 UNK         0.0748 
    127 H127       30.4421   31.8988    5.1396 H         1 UNK         0.0771 
    128 H128       30.8824   30.4571    6.0370 H         1 UNK         0.0771 
    129 H129       31.7106   31.9746    6.3654 H         1 UNK         0.0771 
    130 H130       32.5603   28.4422    4.6513 H         1 UNK         0.2980 
    131 H131       35.2052   28.4942    6.0305 H         1 UNK         0.0545 
    132 H132       32.3857   26.6115    7.9688 H         1 UNK         0.3459 
    133 H133       32.0911   27.9143    6.8427 H         1 UNK         0.3459 
    134 H134       35.5788   27.8781    3.7187 H         1 UNK         0.0616 
    135 H135       35.9128   26.5333    4.7581 H         1 UNK         0.0616 
    136 H136       34.8729   24.4785    4.8607 H         1 UNK         0.0634 
    137 H137       35.0226   24.0013    3.1863 H         1 UNK         0.0634 
@<TRIPOS>BOND
     1    1    2 1    
     2    1   72 1    
     3    1   73 1    
     4    1   74 1    
     5    2    3 2    
     6    2    4 am   BACKBONE|DICT|INTERRES
     7    4    5 1    
     8    4   75 1    
     9    5    6 1    
    10    5   35 1    
    11    5   76 1    
    12    6    7 1    
    13    6   77 1    
    14    6   78 1    
    15    7    8 1    
    16    8    9 1    
    17    8   79 1    
    18    8   80 1    
    19    9   10 ar   
    20    9   14 ar   
    21   10   11 ar   
    22   10   81 1    
    23   11   12 ar   
    24   11   71 1    
    25   12   13 ar   
    26   12   82 1    
    27   13   14 ar   
    28   13   15 1    
    29   14   83 1    
    30   15   16 1    
    31   15   84 1    
    32   15   85 1    
    33   16   17 1    
    34   17   18 1    
    35   17   86 1    
    36   17   87 1    
    37   18   19 1    
    38   18   37 1    
    39   18   88 1    
    40   19   20 am   BACKBONE|DICT|INTERRES
    41   19   89 1    
    42   20   21 2    
    43   20   22 1    
    44   22   23 1    
    45   22   24 1    
    46   22   90 1    
    47   23   91 1    
    48   23   92 1    
    49   23   93 1    
    50   24   25 am   BACKBONE|DICT|INTERRES
    51   24   94 1    
    52   25   26 2    
    53   25   27 1    
    54   27   28 1    
    55   27   29 1    
    56   27   95 1    
    57   28   96 1    
    58   28   97 1    
    59   28   98 1    
    60   29   30 am   BACKBONE|DICT|INTERRES
    61   29   99 1    
    62   30   31 2    
    63   30   32 1    
    64   32   33 1    
    65   32   34 1    
    66   32  100 1    
    67   33  101 1    
    68   33  102 1    
    69   33  103 1    
    70   34   35 am   BACKBONE|DICT|INTERRES
    71   34  104 1    
    72   35   36 2    
    73   37   38 2    
    74   37   39 am   BACKBONE|DICT|INTERRES
    75   39   40 1    
    76   39  105 1    
    77   40   41 1    
    78   40   42 1    
    79   40  106 1    
    80   41  107 1    
    81   41  108 1    
    82   41  109 1    
    83   42   43 2    
    84   42   44 am   BACKBONE|DICT|INTERRES
    85   44   45 1    
    86   44  110 1    
    87   45   46 1    
    88   45   47 1    
    89   45  111 1    
    90   46  112 1    
    91   46  113 1    
    92   46  114 1    
    93   47   48 2    
    94   47   49 am   BACKBONE|DICT|INTERRES
    95   49   50 1    
    96   49  115 1    
    97   50   51 1    
    98   50   52 1    
    99   50  116 1    
   100   51  117 1    
   101   51  118 1    
   102   51  119 1    
   103   52   53 2    
   104   52   54 am   BACKBONE|DICT|INTERRES
   105   54   55 1    
   106   54  120 1    
   107   55   56 1    
   108   55   57 1    
   109   55  121 1    
   110   56  122 1    
   111   56  123 1    
   112   56  124 1    
   113   57   58 2    
   114   57   59 am   BACKBONE|DICT|INTERRES
   115   59   60 1    
   116   59  125 1    
   117   60   61 1    
   118   60   62 1    
   119   60  126 1    
   120   61  127 1    
   121   61  128 1    
   122   61  129 1    
   123   62   63 2    
   124   62   64 am   BACKBONE|DICT|INTERRES
   125   64   65 1    
   126   64  130 1    
   127   65   66 1    
   128   65   69 1    
   129   65  131 1    
   130   66   67 am   BACKBONE|DICT|INTERRES
   131   66   68 2    
   132   67  132 1    
   133   67  133 1    
   134   69   70 1    
   135   69  134 1    
   136   69  135 1    
   137   70   71 1    
   138   71  136 1    
   139   71  137 1    
@<TRIPOS>SUBSTRUCTURE
     1 UNK         1 GROUP             0       ****    0 ROOT    
