@<TRIPOS>MOLECULE
3R136
137   139    1
SMALL
USER_CHARGES


@<TRIPOS>ATOM
      1 CA         29.5752   24.6917   -5.5034 C.3       0 UNK        -0.1979 
      2 C          29.7864   25.0999   -4.0530 C.2       0 UNK         0.4864 
      3 O          29.3939   26.2005   -3.6662 O.2       0 UNK        -0.5359 
      4 N          30.4112   24.2244   -3.2529 N.am      1 UNK        -0.4318 
      5 CA         30.6566   24.4319   -1.8197 C.3       1 UNK         0.0824 
      6 C6         31.7903   23.5063   -1.3050 C.3       12 UNK        -0.0944 
      7 S7         32.8299   24.3068   -0.0377 S.3       12 UNK        -0.2672 
      8 C8         32.9462   23.0224    1.2465 C.3       12 UNK         0.0333 
      9 C9         32.1083   23.3627    2.4699 C.ar      12 UNK        -0.0807 
     10 C10        32.7089   23.9649    3.5799 C.ar      12 UNK        -0.0894 
     11 C11        31.9664   24.2281    4.7346 C.ar      12 UNK        -0.0804 
     12 C12        30.6100   23.8946    4.7712 C.ar      12 UNK        -0.0824 
     13 C13        29.9928   23.3121    3.6603 C.ar      12 UNK        -0.0762 
     14 C14        30.7468   23.0465    2.5120 C.ar      12 UNK        -0.0782 
     15 C15        28.5181   22.9443    3.7096 C.3       12 UNK         0.0230 
     16 S16        27.4755   24.2009    2.9089 S.3       12 UNK        -0.2608 
     17 C17        27.5376   25.5891    4.0953 C.3       12 UNK        -0.0989 
     18 CA         28.2956   26.8403    3.5693 C.3       5 UNK         0.0716 
     19 N          27.8278   27.2120    2.2319 N.am      5 UNK        -0.4135 
     20 C          28.0674   28.3202    1.5172 C.2       4 UNK         0.5031 
     21 O          28.7765   29.2557    1.8929 O.2       4 UNK        -0.5229 
     22 CA         27.4301   28.3971    0.1146 C.3       4 UNK         0.0329 
     23 CB         28.5187   28.3853   -0.9713 C.3       4 UNK        -0.2001 
     24 N          26.4895   27.3079   -0.1613 N.am      4 UNK        -0.4303 
     25 C          25.2560   27.1806    0.3446 C.2       3 UNK         0.5044 
     26 O          24.7120   28.0493    1.0257 O.2       3 UNK        -0.5152 
     27 CA         24.5210   25.8430    0.1135 C.3       3 UNK         0.0319 
     28 CB         23.5135   25.9496   -1.0485 C.3       3 UNK        -0.2001 
     29 N          25.4072   24.6727   -0.0290 N.am      3 UNK        -0.4354 
     30 C          26.2455   24.3819   -1.0339 C.2       2 UNK         0.4964 
     31 O          26.3460   25.0535   -2.0621 O.2       2 UNK        -0.5047 
     32 CA         27.1461   23.1497   -0.8449 C.3       2 UNK         0.0288 
     33 CB         26.5099   21.9108   -1.4948 C.3       2 UNK        -0.2113 
     34 N          28.4750   23.3673   -1.4210 N.am      2 UNK        -0.4145 
     35 C          29.3653   24.2752   -0.9876 C.2       1 UNK         0.5006 
     36 O          29.1912   24.9808    0.0056 O.2       1 UNK        -0.5103 
     37 C          28.1540   27.9921    4.5864 C.2       5 UNK         0.5055 
     38 O          27.0278   28.3716    4.9158 O.2       5 UNK        -0.5220 
     39 N          29.2920   28.5155    5.0586 N.am      6 UNK        -0.4450 
     40 CA         29.4503   29.6142    6.0183 C.3       6 UNK         0.0367 
     41 CB         28.8096   29.2724    7.3800 C.3       6 UNK        -0.1929 
     42 C          29.0136   30.9923    5.4791 C.2       6 UNK         0.5070 
     43 O          28.8744   31.9289    6.2674 O.2       6 UNK        -0.5237 
     44 N          28.8318   31.1086    4.1585 N.am      7 UNK        -0.4739 
     45 CA         28.5277   32.3428    3.4433 C.3       7 UNK         0.0276 
     46 CB         27.1440   32.2179    2.7726 C.3       7 UNK        -0.1927 
     47 C          29.6822   32.5994    2.4664 C.2       7 UNK         0.5013 
     48 O          30.7314   33.0773    2.8993 O.2       7 UNK        -0.5193 
     49 N          29.4921   32.2666    1.1813 N.am      8 UNK        -0.4253 
     50 CA         30.5211   32.3656    0.1414 C.3       8 UNK         0.0242 
     51 CB         29.8719   32.2678   -1.2486 C.3       8 UNK        -0.2000 
     52 C          31.6509   31.3327    0.3121 C.2       8 UNK         0.4948 
     53 O          32.7986   31.6443   -0.0079 O.2       8 UNK        -0.5275 
     54 N          31.3271   30.1513    0.8559 N.am      9 UNK        -0.4246 
     55 CA         32.2912   29.1773    1.3593 C.3       9 UNK         0.0261 
     56 CB         31.8385   27.7539    0.9826 C.3       9 UNK        -0.1959 
     57 C          32.3492   29.3931    2.8748 C.2       9 UNK         0.5033 
     58 O          31.6374   28.7175    3.6143 O.2       9 UNK        -0.5390 
     59 N          33.1272   30.3993    3.2946 N.am      10 UNK        -0.4215 
     60 CA         33.1219   30.9854    4.6411 C.3       10 UNK         0.0240 
     61 CB         34.0075   32.2426    4.6337 C.3       10 UNK        -0.1982 
     62 C          33.5250   30.0522    5.7998 C.2       10 UNK         0.4970 
     63 O          33.2454   30.3934    6.9496 O.2       10 UNK        -0.4916 
     64 N          34.1723   28.9203    5.4929 N.am      11 UNK        -0.4279 
     65 CA         34.6126   27.8819    6.4454 C.3       11 UNK         0.1003 
     66 C          35.7906   28.3071    7.3749 C.2       11 UNK         0.5709 
     67 N          36.4982   29.3949    7.0924 N.am      11 UNK        -0.7358 
     68 O          36.0963   27.6233    8.3493 O.2       11 UNK        -0.4999 
     69 C69        33.4401   27.2200    7.2334 C.3       12 UNK        -0.0954 
     70 S70        32.1205   26.5878    6.1464 S.3       12 UNK        -0.2268 
     71 C71        32.6330   24.8579    5.9472 C.3       12 UNK         0.0203 
     72 H72        30.0580   25.4072   -6.1685 H         1 UNK         0.0888 
     73 H73        29.9840   23.7036   -5.7143 H         1 UNK         0.0888 
     74 H74        28.5105   24.6750   -5.7355 H         1 UNK         0.0888 
     75 H75        30.7328   23.3467   -3.6365 H         1 UNK         0.3017 
     76 H76        30.9794   25.4697   -1.7050 H         1 UNK         0.0873 
     77 H77        31.3969   22.5525   -0.9487 H         1 UNK         0.0745 
     78 H78        32.4687   23.2504   -2.1207 H         1 UNK         0.0745 
     79 H79        33.9944   22.9231    1.5329 H         1 UNK         0.0705 
     80 H80        32.6585   22.0465    0.8540 H         1 UNK         0.0705 
     81 H81        33.7603   24.2162    3.5492 H         1 UNK         0.1334 
     82 H82        30.0374   24.0945    5.6664 H         1 UNK         0.1417 
     83 H83        30.2734   22.5920    1.6525 H         1 UNK         0.1562 
     84 H84        28.1879   22.7940    4.7387 H         1 UNK         0.0748 
     85 H85        28.3656   21.9905    3.2022 H         1 UNK         0.0748 
     86 H86        27.9746   25.2500    5.0357 H         1 UNK         0.0940 
     87 H87        26.5009   25.8415    4.3286 H         1 UNK         0.0940 
     88 H88        29.3531   26.5845    3.4705 H         1 UNK         0.0703 
     89 H89        27.2837   26.4946    1.7777 H         1 UNK         0.3081 
     90 H90        26.8920   29.3452    0.0560 H         1 UNK         0.0719 
     91 H91        29.0468   27.4326   -1.0029 H         1 UNK         0.0809 
     92 H92        28.0967   28.5629   -1.9605 H         1 UNK         0.0809 
     93 H93        29.2683   29.1540   -0.7944 H         1 UNK         0.0809 
     94 H94        26.8254   26.5603   -0.7590 H         1 UNK         0.2990 
     95 H95        23.9456   25.6552    1.0216 H         1 UNK         0.0690 
     96 H96        22.9658   25.0173   -1.1861 H         1 UNK         0.0788 
     97 H97        23.9989   26.1974   -1.9927 H         1 UNK         0.0788 
     98 H98        22.7787   26.7313   -0.8518 H         1 UNK         0.0788 
     99 H99        25.4232   24.0617    0.7770 H         1 UNK         0.2993 
    100 H100       27.2733   22.9600    0.2224 H         1 UNK         0.0949 
    101 H101       26.3736   22.0439   -2.5691 H         1 UNK         0.0767 
    102 H102       27.1226   21.0222   -1.3405 H         1 UNK         0.0767 
    103 H103       25.5286   21.7047   -1.0651 H         1 UNK         0.0767 
    104 H104       28.6829   22.8671   -2.2717 H         1 UNK         0.3013 
    105 H105       30.1689   28.2318    4.6186 H         1 UNK         0.3121 
    106 H106       30.5252   29.6933    6.1831 H         1 UNK         0.0774 
    107 H107       29.0797   30.0120    8.1344 H         1 UNK         0.0815 
    108 H108       27.7212   29.2512    7.3237 H         1 UNK         0.0815 
    109 H109       29.1491   28.3027    7.7442 H         1 UNK         0.0815 
    110 H110       28.9772   30.2901    3.5729 H         1 UNK         0.2987 
    111 H111       28.4983   33.1938    4.1272 H         1 UNK         0.0949 
    112 H112       26.9169   33.0982    2.1696 H         1 UNK         0.0806 
    113 H113       27.0668   31.3407    2.1301 H         1 UNK         0.0806 
    114 H114       26.3590   32.1356    3.5245 H         1 UNK         0.0806 
    115 H115       28.6080   31.8565    0.9183 H         1 UNK         0.3010 
    116 H116       30.9805   33.3534    0.2221 H         1 UNK         0.0829 
    117 H117       29.1838   33.0958   -1.4199 H         1 UNK         0.0813 
    118 H118       30.6264   32.3092   -2.0355 H         1 UNK         0.0813 
    119 H119       29.3147   31.3418   -1.3795 H         1 UNK         0.0813 
    120 H120       30.3660   29.9923    1.1506 H         1 UNK         0.3038 
    121 H121       33.2840   29.3429    0.9357 H         1 UNK         0.0769 
    122 H122       32.5403   27.0132    1.3672 H         1 UNK         0.0811 
    123 H123       31.7874   27.6248   -0.0983 H         1 UNK         0.0811 
    124 H124       30.8601   27.5053    1.3927 H         1 UNK         0.0811 
    125 H125       33.6503   30.9073    2.5948 H         1 UNK         0.3204 
    126 H126       32.0963   31.3020    4.8416 H         1 UNK         0.0748 
    127 H127       34.0062   32.7311    5.6094 H         1 UNK         0.0771 
    128 H128       35.0435   32.0061    4.3878 H         1 UNK         0.0771 
    129 H129       33.6468   32.9749    3.9106 H         1 UNK         0.0771 
    130 H130       34.3521   28.7262    4.5197 H         1 UNK         0.2980 
    131 H131       35.0443   27.1012    5.8187 H         1 UNK         0.0545 
    132 H132       36.2685   29.9602    6.2915 H         1 UNK         0.3459 
    133 H133       37.2652   29.6540    7.6926 H         1 UNK         0.3459 
    134 H134       32.9929   27.9333    7.9268 H         1 UNK         0.0616 
    135 H135       33.8031   26.3952    7.8492 H         1 UNK         0.0616 
    136 H136       32.3756   24.2981    6.8474 H         1 UNK         0.0634 
    137 H137       33.7187   24.8099    5.8496 H         1 UNK         0.0634 
@<TRIPOS>BOND
     1    1    2 1    
     2    1   72 1    
     3    1   73 1    
     4    1   74 1    
     5    2    3 2    
     6    2    4 am   BACKBONE|DICT|INTERRES
     7    4    5 1    
     8    4   75 1    
     9    5    6 1    
    10    5   35 1    
    11    5   76 1    
    12    6    7 1    
    13    6   77 1    
    14    6   78 1    
    15    7    8 1    
    16    8    9 1    
    17    8   79 1    
    18    8   80 1    
    19    9   10 ar   
    20    9   14 ar   
    21   10   11 ar   
    22   10   81 1    
    23   11   12 ar   
    24   11   71 1    
    25   12   13 ar   
    26   12   82 1    
    27   13   14 ar   
    28   13   15 1    
    29   14   83 1    
    30   15   16 1    
    31   15   84 1    
    32   15   85 1    
    33   16   17 1    
    34   17   18 1    
    35   17   86 1    
    36   17   87 1    
    37   18   19 1    
    38   18   37 1    
    39   18   88 1    
    40   19   20 am   BACKBONE|DICT|INTERRES
    41   19   89 1    
    42   20   21 2    
    43   20   22 1    
    44   22   23 1    
    45   22   24 1    
    46   22   90 1    
    47   23   91 1    
    48   23   92 1    
    49   23   93 1    
    50   24   25 am   BACKBONE|DICT|INTERRES
    51   24   94 1    
    52   25   26 2    
    53   25   27 1    
    54   27   28 1    
    55   27   29 1    
    56   27   95 1    
    57   28   96 1    
    58   28   97 1    
    59   28   98 1    
    60   29   30 am   BACKBONE|DICT|INTERRES
    61   29   99 1    
    62   30   31 2    
    63   30   32 1    
    64   32   33 1    
    65   32   34 1    
    66   32  100 1    
    67   33  101 1    
    68   33  102 1    
    69   33  103 1    
    70   34   35 am   BACKBONE|DICT|INTERRES
    71   34  104 1    
    72   35   36 2    
    73   37   38 2    
    74   37   39 am   BACKBONE|DICT|INTERRES
    75   39   40 1    
    76   39  105 1    
    77   40   41 1    
    78   40   42 1    
    79   40  106 1    
    80   41  107 1    
    81   41  108 1    
    82   41  109 1    
    83   42   43 2    
    84   42   44 am   BACKBONE|DICT|INTERRES
    85   44   45 1    
    86   44  110 1    
    87   45   46 1    
    88   45   47 1    
    89   45  111 1    
    90   46  112 1    
    91   46  113 1    
    92   46  114 1    
    93   47   48 2    
    94   47   49 am   BACKBONE|DICT|INTERRES
    95   49   50 1    
    96   49  115 1    
    97   50   51 1    
    98   50   52 1    
    99   50  116 1    
   100   51  117 1    
   101   51  118 1    
   102   51  119 1    
   103   52   53 2    
   104   52   54 am   BACKBONE|DICT|INTERRES
   105   54   55 1    
   106   54  120 1    
   107   55   56 1    
   108   55   57 1    
   109   55  121 1    
   110   56  122 1    
   111   56  123 1    
   112   56  124 1    
   113   57   58 2    
   114   57   59 am   BACKBONE|DICT|INTERRES
   115   59   60 1    
   116   59  125 1    
   117   60   61 1    
   118   60   62 1    
   119   60  126 1    
   120   61  127 1    
   121   61  128 1    
   122   61  129 1    
   123   62   63 2    
   124   62   64 am   BACKBONE|DICT|INTERRES
   125   64   65 1    
   126   64  130 1    
   127   65   66 1    
   128   65   69 1    
   129   65  131 1    
   130   66   67 am   BACKBONE|DICT|INTERRES
   131   66   68 2    
   132   67  132 1    
   133   67  133 1    
   134   69   70 1    
   135   69  134 1    
   136   69  135 1    
   137   70   71 1    
   138   71  136 1    
   139   71  137 1    
@<TRIPOS>SUBSTRUCTURE
     1 UNK         1 GROUP             0       ****    0 ROOT    
