@<TRIPOS>MOLECULE
3R136
137   139    1
SMALL
USER_CHARGES


@<TRIPOS>ATOM
      1 CA         26.9193   19.7386    0.3153 C.3       0 UNK        -0.1979 
      2 C          27.9210   20.5694   -0.4733 C.2       0 UNK         0.4864 
      3 O          28.0975   20.3414   -1.6713 O.2       0 UNK        -0.5359 
      4 N          28.5811   21.5262    0.1908 N.am      1 UNK        -0.4318 
      5 CA         29.5324   22.4595   -0.4169 C.3       1 UNK         0.0824 
      6 C6         30.4295   23.1340    0.6521 C.3       12 UNK        -0.0944 
      7 S7         31.7353   22.0121    1.2522 S.3       12 UNK        -0.2672 
      8 C8         31.0075   21.3020    2.7668 C.3       12 UNK         0.0333 
      9 C9         30.7732   22.3313    3.8663 C.ar      12 UNK        -0.0807 
     10 C10        31.8169   23.1516    4.3062 C.ar      12 UNK        -0.0894 
     11 C11        31.6062   24.0882    5.3222 C.ar      12 UNK        -0.0804 
     12 C12        30.3488   24.1795    5.9250 C.ar      12 UNK        -0.0824 
     13 C13        29.2972   23.3644    5.4958 C.ar      12 UNK        -0.0762 
     14 C14        29.5148   22.4433    4.4664 C.ar      12 UNK        -0.0782 
     15 C15        27.9243   23.4752    6.1413 C.3       12 UNK         0.0230 
     16 S16        26.7760   24.4440    5.1131 S.3       12 UNK        -0.2608 
     17 C17        27.4351   26.1376    5.2962 C.3       12 UNK        -0.0989 
     18 CA         28.3272   26.5717    4.0953 C.3       5 UNK         0.0716 
     19 N          27.6711   26.4382    2.7940 N.am      5 UNK        -0.4135 
     20 C          26.6122   27.1305    2.3530 C.2       4 UNK         0.5031 
     21 O          25.9794   27.9418    3.0326 O.2       4 UNK        -0.5229 
     22 CA         26.2405   26.8747    0.8804 C.3       4 UNK         0.0329 
     23 CB         25.1130   27.7882    0.3544 C.3       4 UNK        -0.2001 
     24 N          27.4279   26.9304    0.0177 N.am      4 UNK        -0.4303 
     25 C          28.2426   27.9848   -0.1704 C.2       3 UNK         0.5044 
     26 O          28.0242   29.1110    0.2753 O.2       3 UNK        -0.5152 
     27 CA         29.5450   27.7477   -0.9636 C.3       3 UNK         0.0319 
     28 CB         30.7362   27.6647    0.0073 C.3       3 UNK        -0.2001 
     29 N          29.5428   26.5334   -1.7803 N.am      3 UNK        -0.4354 
     30 C          28.7333   26.2744   -2.8164 C.2       2 UNK         0.4964 
     31 O          27.9643   27.0990   -3.3102 O.2       2 UNK        -0.5047 
     32 CA         28.7591   24.8355   -3.3695 C.3       2 UNK         0.0288 
     33 CB         29.5568   24.7790   -4.6829 C.3       2 UNK        -0.2113 
     34 N          29.2970   23.8327   -2.4366 N.am      2 UNK        -0.4145 
     35 C          28.7772   23.5210   -1.2387 C.2       1 UNK         0.5006 
     36 O          27.7882   24.0780   -0.7532 O.2       1 UNK        -0.5103 
     37 C          28.9487   27.9808    4.2279 C.2       5 UNK         0.5055 
     38 O          29.6008   28.4401    3.2897 O.2       5 UNK        -0.5220 
     39 N          28.7463   28.6510    5.3697 N.am      6 UNK        -0.4450 
     40 CA         29.3187   29.9627    5.6844 C.3       6 UNK         0.0367 
     41 CB         29.1738   30.2149    7.1948 C.3       6 UNK        -0.1929 
     42 C          28.7365   31.1419    4.8786 C.2       6 UNK         0.5070 
     43 O          29.2403   32.2550    5.0253 O.2       6 UNK        -0.5237 
     44 N          27.7052   30.9122    4.0510 N.am      7 UNK        -0.4739 
     45 CA         27.0198   31.9347    3.2489 C.3       7 UNK         0.0276 
     46 CB         25.8451   31.2896    2.4996 C.3       7 UNK        -0.1927 
     47 C          27.9304   32.6944    2.2653 C.2       7 UNK         0.5013 
     48 O          27.6976   33.8801    2.0277 O.2       7 UNK        -0.5193 
     49 N          28.9640   32.0203    1.7424 N.am      8 UNK        -0.4253 
     50 CA         29.9938   32.6134    0.8821 C.3       8 UNK         0.0242 
     51 CB         30.5359   31.5309   -0.0656 C.3       8 UNK        -0.2000 
     52 C          31.1456   33.2771    1.6662 C.2       8 UNK         0.4948 
     53 O          32.0962   33.7397    1.0352 O.2       8 UNK        -0.5275 
     54 N          31.0729   33.2872    3.0078 N.am      9 UNK        -0.4246 
     55 CA         32.0660   33.7876    3.9720 C.3       9 UNK         0.0261 
     56 CB         32.3844   35.2807    3.7432 C.3       9 UNK        -0.1959 
     57 C          33.3425   32.9283    4.0866 C.2       9 UNK         0.5033 
     58 O          34.2452   33.2953    4.8411 O.2       9 UNK        -0.5390 
     59 N          33.3915   31.7923    3.3839 N.am      10 UNK        -0.4215 
     60 CA         34.4502   30.7901    3.4118 C.3       10 UNK         0.0240 
     61 CB         35.6664   31.2677    2.5958 C.3       10 UNK        -0.1982 
     62 C          33.8742   29.4950    2.8312 C.2       10 UNK         0.4970 
     63 O          32.9572   29.5592    2.0093 O.2       10 UNK        -0.4916 
     64 N          34.4302   28.3571    3.2508 N.am      11 UNK        -0.4279 
     65 CA         34.0313   27.0088    2.8310 C.3       11 UNK         0.1003 
     66 C          35.1542   25.9780    3.1172 C.2       11 UNK         0.5709 
     67 N          35.0406   24.7697    2.5820 N.am      11 UNK        -0.7358 
     68 O          36.1253   26.2587    3.8191 O.2       11 UNK        -0.4999 
     69 C69        32.6472   26.5774    3.3968 C.3       12 UNK        -0.0954 
     70 S70        32.4873   26.7196    5.2143 S.3       12 UNK        -0.2268 
     71 C71        32.7367   25.0025    5.7695 C.3       12 UNK         0.0203 
     72 H72        25.9227   19.8490   -0.1112 H         1 UNK         0.0888 
     73 H73        27.1927   18.6845    0.2758 H         1 UNK         0.0888 
     74 H74        26.8750   20.0379    1.3624 H         1 UNK         0.0888 
     75 H75        28.3611   21.6969    1.1603 H         1 UNK         0.3017 
     76 H76        30.1708   21.8956   -1.1013 H         1 UNK         0.0873 
     77 H77        30.9463   24.0006    0.2349 H         1 UNK         0.0745 
     78 H78        29.8384   23.5150    1.4871 H         1 UNK         0.0745 
     79 H79        30.0830   20.7846    2.5083 H         1 UNK         0.0705 
     80 H80        31.6850   20.5376    3.1493 H         1 UNK         0.0705 
     81 H81        32.7923   23.0676    3.8465 H         1 UNK         0.1334 
     82 H82        30.1879   24.8990    6.7162 H         1 UNK         0.1417 
     83 H83        28.7001   21.8119    4.1388 H         1 UNK         0.1562 
     84 H84        27.9939   23.9176    7.1363 H         1 UNK         0.0748 
     85 H85        27.5096   22.4762    6.2842 H         1 UNK         0.0748 
     86 H86        27.9908   26.1912    6.2336 H         1 UNK         0.0940 
     87 H87        26.5824   26.8101    5.4065 H         1 UNK         0.0940 
     88 H88        29.1807   25.8946    4.0563 H         1 UNK         0.0703 
     89 H89        28.1314   25.8225    2.1418 H         1 UNK         0.3081 
     90 H90        25.8756   25.8474    0.8332 H         1 UNK         0.0719 
     91 H91        25.3924   28.8407    0.3772 H         1 UNK         0.0809 
     92 H92        24.8490   27.5361   -0.6726 H         1 UNK         0.0809 
     93 H93        24.2110   27.6797    0.9578 H         1 UNK         0.0809 
     94 H94        27.6891   26.0431   -0.4017 H         1 UNK         0.2990 
     95 H95        29.6870   28.6051   -1.6243 H         1 UNK         0.0690 
     96 H96        31.6883   27.6757   -0.5233 H         1 UNK         0.0788 
     97 H97        30.6987   26.7624    0.6186 H         1 UNK         0.0788 
     98 H98        30.7434   28.5074    0.6986 H         1 UNK         0.0788 
     99 H99        30.1637   25.7969   -1.4822 H         1 UNK         0.2993 
    100 H100       27.7240   24.5604   -3.5836 H         1 UNK         0.0949 
    101 H101       29.1634   25.4909   -5.4103 H         1 UNK         0.0767 
    102 H102       30.6091   25.0204   -4.5272 H         1 UNK         0.0767 
    103 H103       29.5014   23.7906   -5.1396 H         1 UNK         0.0767 
    104 H104       30.1152   23.3304   -2.7517 H         1 UNK         0.3013 
    105 H105       28.1733   28.2309    6.0864 H         1 UNK         0.3121 
    106 H106       30.3852   29.9230    5.4507 H         1 UNK         0.0774 
    107 H107       28.1270   30.2621    7.4974 H         1 UNK         0.0815 
    108 H108       29.6376   31.1600    7.4815 H         1 UNK         0.0815 
    109 H109       29.6596   29.4320    7.7774 H         1 UNK         0.0815 
    110 H110       27.3638   29.9643    3.9605 H         1 UNK         0.2987 
    111 H111       26.6155   32.6722    3.9455 H         1 UNK         0.0949 
    112 H112       26.1928   30.5294    1.8002 H         1 UNK         0.0806 
    113 H113       25.1433   30.8161    3.1865 H         1 UNK         0.0806 
    114 H114       25.2888   32.0322    1.9261 H         1 UNK         0.0806 
    115 H115       29.0578   31.0368    1.9640 H         1 UNK         0.3010 
    116 H116       29.5367   33.3928    0.2687 H         1 UNK         0.0829 
    117 H117       31.0650   30.7519    0.4815 H         1 UNK         0.0813 
    118 H118       29.7338   31.0616   -0.6348 H         1 UNK         0.0813 
    119 H119       31.2370   31.9530   -0.7867 H         1 UNK         0.0813 
    120 H120       30.2496   32.8812    3.4442 H         1 UNK         0.3038 
    121 H121       31.5803   33.7116    4.9459 H         1 UNK         0.0769 
    122 H122       32.9571   35.4410    2.8296 H         1 UNK         0.0811 
    123 H123       32.9761   35.6830    4.5664 H         1 UNK         0.0811 
    124 H124       31.4737   35.8762    3.6799 H         1 UNK         0.0811 
    125 H125       32.6089   31.5398    2.7928 H         1 UNK         0.3204 
    126 H126       34.7438   30.6132    4.4487 H         1 UNK         0.0748 
    127 H127       36.4542   30.5135    2.5870 H         1 UNK         0.0771 
    128 H128       35.3970   31.4731    1.5589 H         1 UNK         0.0771 
    129 H129       36.0965   32.1774    3.0151 H         1 UNK         0.0771 
    130 H130       35.2079   28.3740    3.8974 H         1 UNK         0.2980 
    131 H131       33.9468   27.0396    1.7429 H         1 UNK         0.0545 
    132 H132       35.7643   24.0905    2.7566 H         1 UNK         0.3459 
    133 H133       34.2594   24.5279    1.9933 H         1 UNK         0.3459 
    134 H134       31.8773   27.2119    2.9596 H         1 UNK         0.0616 
    135 H135       32.3902   25.5699    3.0713 H         1 UNK         0.0616 
    136 H136       32.7970   24.9922    6.8586 H         1 UNK         0.0634 
    137 H137       33.6996   24.6398    5.4077 H         1 UNK         0.0634 
@<TRIPOS>BOND
     1    1    2 1    
     2    1   72 1    
     3    1   73 1    
     4    1   74 1    
     5    2    3 2    
     6    2    4 am   BACKBONE|DICT|INTERRES
     7    4    5 1    
     8    4   75 1    
     9    5    6 1    
    10    5   35 1    
    11    5   76 1    
    12    6    7 1    
    13    6   77 1    
    14    6   78 1    
    15    7    8 1    
    16    8    9 1    
    17    8   79 1    
    18    8   80 1    
    19    9   10 ar   
    20    9   14 ar   
    21   10   11 ar   
    22   10   81 1    
    23   11   12 ar   
    24   11   71 1    
    25   12   13 ar   
    26   12   82 1    
    27   13   14 ar   
    28   13   15 1    
    29   14   83 1    
    30   15   16 1    
    31   15   84 1    
    32   15   85 1    
    33   16   17 1    
    34   17   18 1    
    35   17   86 1    
    36   17   87 1    
    37   18   19 1    
    38   18   37 1    
    39   18   88 1    
    40   19   20 am   BACKBONE|DICT|INTERRES
    41   19   89 1    
    42   20   21 2    
    43   20   22 1    
    44   22   23 1    
    45   22   24 1    
    46   22   90 1    
    47   23   91 1    
    48   23   92 1    
    49   23   93 1    
    50   24   25 am   BACKBONE|DICT|INTERRES
    51   24   94 1    
    52   25   26 2    
    53   25   27 1    
    54   27   28 1    
    55   27   29 1    
    56   27   95 1    
    57   28   96 1    
    58   28   97 1    
    59   28   98 1    
    60   29   30 am   BACKBONE|DICT|INTERRES
    61   29   99 1    
    62   30   31 2    
    63   30   32 1    
    64   32   33 1    
    65   32   34 1    
    66   32  100 1    
    67   33  101 1    
    68   33  102 1    
    69   33  103 1    
    70   34   35 am   BACKBONE|DICT|INTERRES
    71   34  104 1    
    72   35   36 2    
    73   37   38 2    
    74   37   39 am   BACKBONE|DICT|INTERRES
    75   39   40 1    
    76   39  105 1    
    77   40   41 1    
    78   40   42 1    
    79   40  106 1    
    80   41  107 1    
    81   41  108 1    
    82   41  109 1    
    83   42   43 2    
    84   42   44 am   BACKBONE|DICT|INTERRES
    85   44   45 1    
    86   44  110 1    
    87   45   46 1    
    88   45   47 1    
    89   45  111 1    
    90   46  112 1    
    91   46  113 1    
    92   46  114 1    
    93   47   48 2    
    94   47   49 am   BACKBONE|DICT|INTERRES
    95   49   50 1    
    96   49  115 1    
    97   50   51 1    
    98   50   52 1    
    99   50  116 1    
   100   51  117 1    
   101   51  118 1    
   102   51  119 1    
   103   52   53 2    
   104   52   54 am   BACKBONE|DICT|INTERRES
   105   54   55 1    
   106   54  120 1    
   107   55   56 1    
   108   55   57 1    
   109   55  121 1    
   110   56  122 1    
   111   56  123 1    
   112   56  124 1    
   113   57   58 2    
   114   57   59 am   BACKBONE|DICT|INTERRES
   115   59   60 1    
   116   59  125 1    
   117   60   61 1    
   118   60   62 1    
   119   60  126 1    
   120   61  127 1    
   121   61  128 1    
   122   61  129 1    
   123   62   63 2    
   124   62   64 am   BACKBONE|DICT|INTERRES
   125   64   65 1    
   126   64  130 1    
   127   65   66 1    
   128   65   69 1    
   129   65  131 1    
   130   66   67 am   BACKBONE|DICT|INTERRES
   131   66   68 2    
   132   67  132 1    
   133   67  133 1    
   134   69   70 1    
   135   69  134 1    
   136   69  135 1    
   137   70   71 1    
   138   71  136 1    
   139   71  137 1    
@<TRIPOS>SUBSTRUCTURE
     1 UNK         1 GROUP             0       ****    0 ROOT    
