@<TRIPOS>MOLECULE
3R136
137   139    1
SMALL
USER_CHARGES


@<TRIPOS>ATOM
      1 CA         25.5364   21.6735   -1.7738 C.3       0 UNK        -0.1979 
      2 C          26.8461   22.4307   -1.9349 C.2       0 UNK         0.4864 
      3 O          26.9337   23.3347   -2.7681 O.2       0 UNK        -0.5359 
      4 N          27.8694   22.0644   -1.1504 N.am      1 UNK        -0.4318 
      5 CA         29.1692   22.7395   -1.1156 C.3       1 UNK         0.0824 
      6 C6         30.2296   21.8889   -0.3779 C.3       12 UNK        -0.0944 
      7 S7         31.9298   22.4494   -0.7346 S.3       12 UNK        -0.2672 
      8 C8         32.7731   22.1404    0.8493 C.3       12 UNK         0.0333 
      9 C9         32.3084   23.0827    1.9512 C.ar      12 UNK        -0.0807 
     10 C10        32.7412   24.4117    1.9710 C.ar      12 UNK        -0.0894 
     11 C11        32.3400   25.2742    2.9960 C.ar      12 UNK        -0.0804 
     12 C12        31.5043   24.7976    4.0101 C.ar      12 UNK        -0.0824 
     13 C13        31.0525   23.4744    3.9921 C.ar      12 UNK        -0.0762 
     14 C14        31.4628   22.6211    2.9641 C.ar      12 UNK        -0.0782 
     15 C15        30.1228   22.9571    5.0792 C.3       12 UNK         0.0230 
     16 S16        28.3730   23.1696    4.6188 S.3       12 UNK        -0.2608 
     17 C17        28.1047   24.9358    4.9927 C.3       12 UNK        -0.0989 
     18 CA         28.0979   25.8361    3.7249 C.3       5 UNK         0.0716 
     19 N          27.0612   25.4684    2.7504 N.am      5 UNK        -0.4135 
     20 C          25.7349   25.5868    2.9136 C.2       4 UNK         0.5031 
     21 O          25.2037   26.0028    3.9452 O.2       4 UNK        -0.5229 
     22 CA         24.8632   25.2299    1.6992 C.3       4 UNK         0.0329 
     23 CB         23.3553   25.4409    1.9636 C.3       4 UNK        -0.2001 
     24 N          25.3129   26.0293    0.5626 N.am      4 UNK        -0.4303 
     25 C          24.9786   25.8738   -0.7210 C.2       3 UNK         0.5044 
     26 O          24.1705   25.0394   -1.1287 O.2       3 UNK        -0.5152 
     27 CA         25.6852   26.7989   -1.7296 C.3       3 UNK         0.0319 
     28 CB         25.2182   28.2632   -1.5926 C.3       3 UNK        -0.2001 
     29 N          27.1497   26.6807   -1.6904 N.am      3 UNK        -0.4354 
     30 C          27.9907   27.0369   -0.7074 C.2       2 UNK         0.4964 
     31 O          27.6391   27.6063    0.3275 O.2       2 UNK        -0.5047 
     32 CA         29.4548   26.5918   -0.8846 C.3       2 UNK         0.0288 
     33 CB         30.3476   26.9430    0.3219 C.3       2 UNK        -0.2113 
     34 N          29.5574   25.1591   -1.1929 N.am      2 UNK        -0.4145 
     35 C          29.0139   24.1445   -0.4995 C.2       1 UNK         0.5006 
     36 O          28.3862   24.2754    0.5560 O.2       1 UNK        -0.5103 
     37 C          28.0573   27.3440    4.0724 C.2       5 UNK         0.5055 
     38 O          28.1434   27.7090    5.2473 O.2       5 UNK        -0.5220 
     39 N          27.8990   28.1928    3.0502 N.am      6 UNK        -0.4450 
     40 CA         27.7416   29.6374    3.1687 C.3       6 UNK         0.0367 
     41 CB         26.2372   29.9843    3.1624 C.3       6 UNK        -0.1929 
     42 C          28.5597   30.3053    2.0547 C.2       6 UNK         0.5070 
     43 O          29.7830   30.1676    2.0521 O.2       6 UNK        -0.5237 
     44 N          27.8923   31.0401    1.1501 N.am      7 UNK        -0.4739 
     45 CA         28.4503   31.7335   -0.0245 C.3       7 UNK         0.0276 
     46 CB         28.8905   30.7048   -1.0875 C.3       7 UNK        -0.1927 
     47 C          29.5650   32.7510    0.3064 C.2       7 UNK         0.5013 
     48 O          30.4220   33.0175   -0.5377 O.2       7 UNK        -0.5193 
     49 N          29.5355   33.2825    1.5387 N.am      8 UNK        -0.4253 
     50 CA         30.5247   34.1691    2.1646 C.3       8 UNK         0.0242 
     51 CB         30.5776   35.5331    1.4426 C.3       8 UNK        -0.2000 
     52 C          31.9252   33.5399    2.3415 C.2       8 UNK         0.4948 
     53 O          32.8898   34.2795    2.5479 O.2       8 UNK        -0.5275 
     54 N          32.0312   32.2039    2.2808 N.am      9 UNK        -0.4246 
     55 CA         33.2759   31.4714    2.5085 C.3       9 UNK         0.0261 
     56 CB         33.1920   30.1021    1.8178 C.3       9 UNK        -0.1959 
     57 C          33.5226   31.3121    4.0155 C.2       9 UNK         0.5033 
     58 O          32.6205   30.8843    4.7399 O.2       9 UNK        -0.5390 
     59 N          34.7434   31.6269    4.4645 N.am      10 UNK        -0.4215 
     60 CA         35.1671   31.5783    5.8688 C.3       10 UNK         0.0240 
     61 CB         36.3045   32.5966    6.0793 C.3       10 UNK        -0.1982 
     62 C          35.5508   30.1551    6.3264 C.2       10 UNK         0.4970 
     63 O          36.6189   29.9634    6.9116 O.2       10 UNK        -0.4916 
     64 N          34.6847   29.1792    6.0368 N.am      11 UNK        -0.4279 
     65 CA         34.8388   27.7720    6.4303 C.3       11 UNK         0.1003 
     66 C          34.5660   27.5509    7.9428 C.2       11 UNK         0.5709 
     67 N          35.1844   26.5422    8.5417 N.am      11 UNK        -0.7358 
     68 O          33.7775   28.2578    8.5689 O.2       11 UNK        -0.4999 
     69 C69        33.9568   26.8392    5.5624 C.3       12 UNK        -0.0954 
     70 S70        34.4123   26.9242    3.7984 S.3       12 UNK        -0.2268 
     71 C71        32.7966   26.7245    2.9916 C.3       12 UNK         0.0203 
     72 H72        24.7447   22.3567   -1.4674 H         1 UNK         0.0888 
     73 H73        25.2467   21.2189   -2.7207 H         1 UNK         0.0888 
     74 H74        25.6105   20.8837   -1.0265 H         1 UNK         0.0888 
     75 H75        27.7334   21.3363   -0.4640 H         1 UNK         0.3017 
     76 H76        29.4908   22.8481   -2.1542 H         1 UNK         0.0873 
     77 H77        30.0383   21.8819    0.6957 H         1 UNK         0.0745 
     78 H78        30.1647   20.8486   -0.7008 H         1 UNK         0.0745 
     79 H79        32.6244   21.0988    1.1388 H         1 UNK         0.0705 
     80 H80        33.8472   22.2635    0.7033 H         1 UNK         0.0705 
     81 H81        33.3911   24.7747    1.1864 H         1 UNK         0.1334 
     82 H82        31.1934   25.4611    4.8049 H         1 UNK         0.1417 
     83 H83        31.1194   21.5955    2.9530 H         1 UNK         0.1562 
     84 H84        30.3278   23.4502    6.0306 H         1 UNK         0.0748 
     85 H85        30.3104   21.8956    5.2479 H         1 UNK         0.0748 
     86 H86        28.8721   25.2643    5.6952 H         1 UNK         0.0940 
     87 H87        27.1599   25.0296    5.5306 H         1 UNK         0.0940 
     88 H88        29.0436   25.6825    3.2075 H         1 UNK         0.0703 
     89 H89        27.4199   25.0806    1.8777 H         1 UNK         0.3081 
     90 H90        25.0375   24.1762    1.4720 H         1 UNK         0.0719 
     91 H91        23.0287   24.8739    2.8363 H         1 UNK         0.0809 
     92 H92        23.1249   26.4906    2.1494 H         1 UNK         0.0809 
     93 H93        22.7455   25.1080    1.1243 H         1 UNK         0.0809 
     94 H94        26.0308   26.7221    0.7611 H         1 UNK         0.2990 
     95 H95        25.3919   26.4578   -2.7238 H         1 UNK         0.0690 
     96 H96        25.6776   28.8963   -2.3516 H         1 UNK         0.0788 
     97 H97        25.4558   28.6878   -0.6170 H         1 UNK         0.0788 
     98 H98        24.1375   28.3368   -1.7200 H         1 UNK         0.0788 
     99 H99        27.5416   26.1510   -2.4575 H         1 UNK         0.2993 
    100 H100       29.8385   27.1359   -1.7491 H         1 UNK         0.0949 
    101 H101       30.0315   26.4252    1.2263 H         1 UNK         0.0767 
    102 H102       31.3845   26.6705    0.1285 H         1 UNK         0.0767 
    103 H103       30.3275   28.0125    0.5313 H         1 UNK         0.0767 
    104 H104       30.0523   24.9343   -2.0451 H         1 UNK         0.3013 
    105 H105       27.8858   27.8403    2.0932 H         1 UNK         0.3121 
    106 H106       28.1720   29.9853    4.1100 H         1 UNK         0.0774 
    107 H107       25.7429   29.6431    2.2516 H         1 UNK         0.0815 
    108 H108       25.7282   29.5118    4.0030 H         1 UNK         0.0815 
    109 H109       26.0742   31.0585    3.2580 H         1 UNK         0.0815 
    110 H110       26.8888   31.1028    1.2531 H         1 UNK         0.2987 
    111 H111       27.6349   32.3189   -0.4523 H         1 UNK         0.0949 
    112 H112       28.0759   30.0263   -1.3395 H         1 UNK         0.0806 
    113 H113       29.1959   31.1964   -2.0119 H         1 UNK         0.0806 
    114 H114       29.7336   30.1056   -0.7425 H         1 UNK         0.0806 
    115 H115       28.7836   32.9801    2.1420 H         1 UNK         0.3010 
    116 H116       30.1593   34.3516    3.1763 H         1 UNK         0.0829 
    117 H117       31.0099   35.4473    0.4453 H         1 UNK         0.0813 
    118 H118       29.5835   35.9685    1.3417 H         1 UNK         0.0813 
    119 H119       31.1863   36.2479    1.9979 H         1 UNK         0.0813 
    120 H120       31.1954   31.6392    2.1592 H         1 UNK         0.3038 
    121 H121       34.1034   32.0262    2.0608 H         1 UNK         0.0769 
    122 H122       33.0322   30.2075    0.7446 H         1 UNK         0.0811 
    123 H123       32.3729   29.5045    2.2179 H         1 UNK         0.0811 
    124 H124       34.1128   29.5347    1.9578 H         1 UNK         0.0811 
    125 H125       35.4400   31.9312    3.7990 H         1 UNK         0.3204 
    126 H126       34.3297   31.8917    6.4962 H         1 UNK         0.0748 
    127 H127       37.1902   32.3397    5.4967 H         1 UNK         0.0771 
    128 H128       35.9945   33.6022    5.7939 H         1 UNK         0.0771 
    129 H129       36.6038   32.6399    7.1275 H         1 UNK         0.0771 
    130 H130       33.8139   29.4347    5.5855 H         1 UNK         0.2980 
    131 H131       35.8810   27.4990    6.2512 H         1 UNK         0.0545 
    132 H132       35.0112   26.3734    9.5203 H         1 UNK         0.3459 
    133 H133       35.8247   25.9490    8.0370 H         1 UNK         0.3459 
    134 H134       32.9036   27.0970    5.6854 H         1 UNK         0.0616 
    135 H135       34.0601   25.7995    5.8785 H         1 UNK         0.0616 
    136 H136       32.8855   27.0741    1.9628 H         1 UNK         0.0634 
    137 H137       32.0544   27.3676    3.4675 H         1 UNK         0.0634 
@<TRIPOS>BOND
     1    1    2 1    
     2    1   72 1    
     3    1   73 1    
     4    1   74 1    
     5    2    3 2    
     6    2    4 am   BACKBONE|DICT|INTERRES
     7    4    5 1    
     8    4   75 1    
     9    5    6 1    
    10    5   35 1    
    11    5   76 1    
    12    6    7 1    
    13    6   77 1    
    14    6   78 1    
    15    7    8 1    
    16    8    9 1    
    17    8   79 1    
    18    8   80 1    
    19    9   10 ar   
    20    9   14 ar   
    21   10   11 ar   
    22   10   81 1    
    23   11   12 ar   
    24   11   71 1    
    25   12   13 ar   
    26   12   82 1    
    27   13   14 ar   
    28   13   15 1    
    29   14   83 1    
    30   15   16 1    
    31   15   84 1    
    32   15   85 1    
    33   16   17 1    
    34   17   18 1    
    35   17   86 1    
    36   17   87 1    
    37   18   19 1    
    38   18   37 1    
    39   18   88 1    
    40   19   20 am   BACKBONE|DICT|INTERRES
    41   19   89 1    
    42   20   21 2    
    43   20   22 1    
    44   22   23 1    
    45   22   24 1    
    46   22   90 1    
    47   23   91 1    
    48   23   92 1    
    49   23   93 1    
    50   24   25 am   BACKBONE|DICT|INTERRES
    51   24   94 1    
    52   25   26 2    
    53   25   27 1    
    54   27   28 1    
    55   27   29 1    
    56   27   95 1    
    57   28   96 1    
    58   28   97 1    
    59   28   98 1    
    60   29   30 am   BACKBONE|DICT|INTERRES
    61   29   99 1    
    62   30   31 2    
    63   30   32 1    
    64   32   33 1    
    65   32   34 1    
    66   32  100 1    
    67   33  101 1    
    68   33  102 1    
    69   33  103 1    
    70   34   35 am   BACKBONE|DICT|INTERRES
    71   34  104 1    
    72   35   36 2    
    73   37   38 2    
    74   37   39 am   BACKBONE|DICT|INTERRES
    75   39   40 1    
    76   39  105 1    
    77   40   41 1    
    78   40   42 1    
    79   40  106 1    
    80   41  107 1    
    81   41  108 1    
    82   41  109 1    
    83   42   43 2    
    84   42   44 am   BACKBONE|DICT|INTERRES
    85   44   45 1    
    86   44  110 1    
    87   45   46 1    
    88   45   47 1    
    89   45  111 1    
    90   46  112 1    
    91   46  113 1    
    92   46  114 1    
    93   47   48 2    
    94   47   49 am   BACKBONE|DICT|INTERRES
    95   49   50 1    
    96   49  115 1    
    97   50   51 1    
    98   50   52 1    
    99   50  116 1    
   100   51  117 1    
   101   51  118 1    
   102   51  119 1    
   103   52   53 2    
   104   52   54 am   BACKBONE|DICT|INTERRES
   105   54   55 1    
   106   54  120 1    
   107   55   56 1    
   108   55   57 1    
   109   55  121 1    
   110   56  122 1    
   111   56  123 1    
   112   56  124 1    
   113   57   58 2    
   114   57   59 am   BACKBONE|DICT|INTERRES
   115   59   60 1    
   116   59  125 1    
   117   60   61 1    
   118   60   62 1    
   119   60  126 1    
   120   61  127 1    
   121   61  128 1    
   122   61  129 1    
   123   62   63 2    
   124   62   64 am   BACKBONE|DICT|INTERRES
   125   64   65 1    
   126   64  130 1    
   127   65   66 1    
   128   65   69 1    
   129   65  131 1    
   130   66   67 am   BACKBONE|DICT|INTERRES
   131   66   68 2    
   132   67  132 1    
   133   67  133 1    
   134   69   70 1    
   135   69  134 1    
   136   69  135 1    
   137   70   71 1    
   138   71  136 1    
   139   71  137 1    
@<TRIPOS>SUBSTRUCTURE
     1 UNK         1 GROUP             0       ****    0 ROOT    
