@<TRIPOS>MOLECULE
3R136
137   139    1
SMALL
USER_CHARGES


@<TRIPOS>ATOM
      1 CA         31.3936   23.0425   -5.9849 C.3       0 UNK        -0.1979 
      2 C          30.6759   23.7423   -4.8407 C.2       0 UNK         0.4864 
      3 O          30.2515   24.8897   -4.9923 O.2       0 UNK        -0.5359 
      4 N          30.5222   23.0613   -3.6968 N.am      1 UNK        -0.4318 
      5 CA         29.8566   23.5617   -2.4876 C.3       1 UNK         0.0824 
      6 C6         30.3850   22.8321   -1.2232 C.3       12 UNK        -0.0944 
      7 S7         30.2072   23.8338    0.2896 S.3       12 UNK        -0.2672 
      8 C8         31.2947   22.9072    1.4119 C.3       12 UNK         0.0333 
      9 C9         31.3578   23.5518    2.7878 C.ar      12 UNK        -0.0807 
     10 C10        32.2992   24.5502    3.0521 C.ar      12 UNK        -0.0894 
     11 C11        32.3919   25.1192    4.3259 C.ar      12 UNK        -0.0804 
     12 C12        31.5291   24.6886    5.3384 C.ar      12 UNK        -0.0824 
     13 C13        30.5719   23.7029    5.0803 C.ar      12 UNK        -0.0762 
     14 C14        30.4930   23.1355    3.8043 C.ar      12 UNK        -0.0782 
     15 C15        29.6313   23.2354    6.1804 C.3       12 UNK         0.0230 
     16 S16        27.9503   23.8955    5.9558 S.3       12 UNK        -0.2608 
     17 C17        28.1564   25.6523    6.4118 C.3       12 UNK        -0.0989 
     18 CA         28.2253   26.6029    5.1890 C.3       5 UNK         0.0716 
     19 N          27.0987   26.4145    4.2708 N.am      5 UNK        -0.4135 
     20 C          26.9268   27.0686    3.1154 C.2       4 UNK         0.5031 
     21 O          27.7581   27.8485    2.6380 O.2       4 UNK        -0.5229 
     22 CA         25.5602   26.8618    2.4362 C.3       4 UNK         0.0329 
     23 CB         24.4683   27.6395    3.1922 C.3       4 UNK        -0.2001 
     24 N          25.5400   27.2838    1.0347 N.am      4 UNK        -0.4303 
     25 C          26.1860   26.6668    0.0392 C.2       3 UNK         0.5044 
     26 O          26.8711   25.6529    0.1878 O.2       3 UNK        -0.5152 
     27 CA         26.0315   27.3052   -1.3529 C.3       3 UNK         0.0319 
     28 CB         26.8718   28.5873   -1.4715 C.3       3 UNK        -0.2001 
     29 N          26.4384   26.3804   -2.4100 N.am      3 UNK        -0.4354 
     30 C          25.6856   25.3821   -2.8912 C.2       2 UNK         0.4964 
     31 O          24.5069   25.1982   -2.5841 O.2       2 UNK        -0.5047 
     32 CA         26.3658   24.4266   -3.8867 C.3       2 UNK         0.0288 
     33 CB         26.1723   24.9191   -5.3303 C.3       2 UNK        -0.2113 
     34 N          27.7977   24.2712   -3.6173 N.am      2 UNK        -0.4145 
     35 C          28.3167   23.5137   -2.6411 C.2       1 UNK         0.5006 
     36 O          27.6359   22.7790   -1.9221 O.2       1 UNK        -0.5103 
     37 C          28.2727   28.0730    5.6558 C.2       5 UNK         0.5055 
     38 O          27.2481   28.5942    6.1019 O.2       5 UNK        -0.5220 
     39 N          29.4408   28.7103    5.5078 N.am      6 UNK        -0.4450 
     40 CA         29.7168   30.1347    5.7489 C.3       6 UNK         0.0367 
     41 CB         29.3865   30.5555    7.1971 C.3       6 UNK        -0.1929 
     42 C          29.1170   31.0941    4.6982 C.2       6 UNK         0.5070 
     43 O          29.2420   32.3081    4.8657 O.2       6 UNK        -0.5237 
     44 N          28.5205   30.5587    3.6234 N.am      7 UNK        -0.4739 
     45 CA         28.1311   31.3064    2.4244 C.3       7 UNK         0.0276 
     46 CB         26.6540   31.0370    2.0931 C.3       7 UNK        -0.1927 
     47 C          29.0362   30.9273    1.2417 C.2       7 UNK         0.5013 
     48 O          29.3914   31.8035    0.4532 O.2       7 UNK        -0.5193 
     49 N          29.4127   29.6418    1.1491 N.am      8 UNK        -0.4253 
     50 CA         30.3239   29.0922    0.1393 C.3       8 UNK         0.0242 
     51 CB         30.3301   27.5581    0.2577 C.3       8 UNK        -0.2000 
     52 C          31.7634   29.6313    0.2230 C.2       8 UNK         0.4948 
     53 O          32.4425   29.6931   -0.8030 O.2       8 UNK        -0.5275 
     54 N          32.2020   30.0036    1.4289 N.am      9 UNK        -0.4246 
     55 CA         33.5191   30.5417    1.7526 C.3       9 UNK         0.0261 
     56 CB         34.5775   29.4187    1.7106 C.3       9 UNK        -0.1959 
     57 C          33.4337   31.1797    3.1450 C.2       9 UNK         0.5033 
     58 O          32.3892   31.0886    3.7969 O.2       9 UNK        -0.5390 
     59 N          34.5375   31.7800    3.6069 N.am      10 UNK        -0.4215 
     60 CA         34.6965   32.3074    4.9665 C.3       10 UNK         0.0240 
     61 CB         35.8284   33.3523    4.9696 C.3       10 UNK        -0.1982 
     62 C          34.9362   31.1670    5.9783 C.2       10 UNK         0.4970 
     63 O          36.0250   31.0593    6.5452 O.2       10 UNK        -0.4916 
     64 N          33.9218   30.3111    6.1450 N.am      11 UNK        -0.4279 
     65 CA         33.9574   29.0821    6.9563 C.3       11 UNK         0.1003 
     66 C          34.0234   29.3066    8.4952 C.2       11 UNK         0.5709 
     67 N          33.7666   30.5052    9.0056 N.am      11 UNK        -0.7358 
     68 O          34.3174   28.3734    9.2385 O.2       11 UNK        -0.4999 
     69 C69        32.7967   28.1148    6.5941 C.3       12 UNK        -0.0954 
     70 S70        32.6436   27.8202    4.7967 S.3       12 UNK        -0.2268 
     71 C71        33.4293   26.1940    4.6055 C.3       12 UNK         0.0203 
     72 H72        32.2766   23.6105   -6.2762 H         1 UNK         0.0888 
     73 H73        31.7121   22.0365   -5.7123 H         1 UNK         0.0888 
     74 H74        30.7354   22.9675   -6.8501 H         1 UNK         0.0888 
     75 H75        30.8590   22.1101   -3.6443 H         1 UNK         0.3017 
     76 H76        30.1248   24.6164   -2.3874 H         1 UNK         0.0873 
     77 H77        29.9103   21.8592   -1.0818 H         1 UNK         0.0745 
     78 H78        31.4505   22.6267   -1.3408 H         1 UNK         0.0745 
     79 H79        32.2968   22.8523    0.9835 H         1 UNK         0.0705 
     80 H80        30.9375   21.8794    1.4930 H         1 UNK         0.0705 
     81 H81        32.9643   24.8784    2.2648 H         1 UNK         0.1334 
     82 H82        31.6005   25.1276    6.3240 H         1 UNK         0.1417 
     83 H83        29.7564   22.3691    3.6037 H         1 UNK         0.1562 
     84 H84        30.0086   23.5125    7.1661 H         1 UNK         0.0748 
     85 H85        29.5833   22.1455    6.1714 H         1 UNK         0.0748 
     86 H86        29.0488   25.7643    7.0305 H         1 UNK         0.0940 
     87 H87        27.3148   25.9194    7.0547 H         1 UNK         0.0940 
     88 H88        29.1355   26.3787    4.6281 H         1 UNK         0.0703 
     89 H89        26.3671   25.8031    4.6007 H         1 UNK         0.3081 
     90 H90        25.3218   25.7965    2.4704 H         1 UNK         0.0719 
     91 H91        24.6661   28.7123    3.1956 H         1 UNK         0.0809 
     92 H92        23.4858   27.4802    2.7475 H         1 UNK         0.0809 
     93 H93        24.4024   27.3212    4.2334 H         1 UNK         0.0809 
     94 H94        25.0198   28.1229    0.8267 H         1 UNK         0.2990 
     95 H95        24.9799   27.5648   -1.4938 H         1 UNK         0.0690 
     96 H96        26.6827   29.0963   -2.4168 H         1 UNK         0.0788 
     97 H97        27.9367   28.3690   -1.4202 H         1 UNK         0.0788 
     98 H98        26.6432   29.2947   -0.6735 H         1 UNK         0.0788 
     99 H99        27.4051   26.4223   -2.6943 H         1 UNK         0.2993 
    100 H100       25.8840   23.4509   -3.7904 H         1 UNK         0.0949 
    101 H101       26.6435   25.8893   -5.4939 H         1 UNK         0.0767 
    102 H102       26.5948   24.2158   -6.0483 H         1 UNK         0.0767 
    103 H103       25.1127   25.0261   -5.5671 H         1 UNK         0.0767 
    104 H104       28.4485   24.7781   -4.2114 H         1 UNK         0.3013 
    105 H105       30.2195   28.1929    5.1183 H         1 UNK         0.3121 
    106 H106       30.7950   30.2375    5.6373 H         1 UNK         0.0774 
    107 H107       29.7825   31.5487    7.4118 H         1 UNK         0.0815 
    108 H108       28.3121   30.5951    7.3763 H         1 UNK         0.0815 
    109 H109       29.8256   29.8706    7.9221 H         1 UNK         0.0815 
    110 H110       28.4133   29.5519    3.5743 H         1 UNK         0.2987 
    111 H111       28.2462   32.3799    2.5899 H         1 UNK         0.0949 
    112 H112       26.3366   31.6259    1.2315 H         1 UNK         0.0806 
    113 H113       26.4723   29.9904    1.8539 H         1 UNK         0.0806 
    114 H114       26.0065   31.3069    2.9274 H         1 UNK         0.0806 
    115 H115       28.9831   28.9684    1.7793 H         1 UNK         0.3010 
    116 H116       29.9373   29.3677   -0.8432 H         1 UNK         0.0829 
    117 H117       29.3295   27.1399    0.1491 H         1 UNK         0.0813 
    118 H118       30.9543   27.1066   -0.5147 H         1 UNK         0.0813 
    119 H119       30.7188   27.2294    1.2229 H         1 UNK         0.0813 
    120 H120       31.5717   29.9801    2.2219 H         1 UNK         0.3038 
    121 H121       33.7719   31.3219    1.0319 H         1 UNK         0.0769 
    122 H122       35.5746   29.7980    1.9350 H         1 UNK         0.0811 
    123 H123       34.6314   28.9560    0.7253 H         1 UNK         0.0811 
    124 H124       34.3569   28.6324    2.4329 H         1 UNK         0.0811 
    125 H125       35.3615   31.7930    3.0230 H         1 UNK         0.3204 
    126 H126       33.7753   32.8163    5.2594 H         1 UNK         0.0748 
    127 H127       35.9624   33.7794    5.9645 H         1 UNK         0.0771 
    128 H128       36.7832   32.9186    4.6693 H         1 UNK         0.0771 
    129 H129       35.6073   34.1776    4.2924 H         1 UNK         0.0771 
    130 H130       33.0968   30.4484    5.5712 H         1 UNK         0.2980 
    131 H131       34.8868   28.5719    6.6966 H         1 UNK         0.0545 
    132 H132       33.5293   31.2764    8.4034 H         1 UNK         0.3459 
    133 H133       33.8165   30.6382   10.0032 H         1 UNK         0.3459 
    134 H134       31.8502   28.5184    6.9531 H         1 UNK         0.0616 
    135 H135       32.9190   27.1601    7.1081 H         1 UNK         0.0616 
    136 H136       34.0094   25.9325    5.4913 H         1 UNK         0.0634 
    137 H137       34.1458   26.2560    3.7851 H         1 UNK         0.0634 
@<TRIPOS>BOND
     1    1    2 1    
     2    1   72 1    
     3    1   73 1    
     4    1   74 1    
     5    2    3 2    
     6    2    4 am   BACKBONE|DICT|INTERRES
     7    4    5 1    
     8    4   75 1    
     9    5    6 1    
    10    5   35 1    
    11    5   76 1    
    12    6    7 1    
    13    6   77 1    
    14    6   78 1    
    15    7    8 1    
    16    8    9 1    
    17    8   79 1    
    18    8   80 1    
    19    9   10 ar   
    20    9   14 ar   
    21   10   11 ar   
    22   10   81 1    
    23   11   12 ar   
    24   11   71 1    
    25   12   13 ar   
    26   12   82 1    
    27   13   14 ar   
    28   13   15 1    
    29   14   83 1    
    30   15   16 1    
    31   15   84 1    
    32   15   85 1    
    33   16   17 1    
    34   17   18 1    
    35   17   86 1    
    36   17   87 1    
    37   18   19 1    
    38   18   37 1    
    39   18   88 1    
    40   19   20 am   BACKBONE|DICT|INTERRES
    41   19   89 1    
    42   20   21 2    
    43   20   22 1    
    44   22   23 1    
    45   22   24 1    
    46   22   90 1    
    47   23   91 1    
    48   23   92 1    
    49   23   93 1    
    50   24   25 am   BACKBONE|DICT|INTERRES
    51   24   94 1    
    52   25   26 2    
    53   25   27 1    
    54   27   28 1    
    55   27   29 1    
    56   27   95 1    
    57   28   96 1    
    58   28   97 1    
    59   28   98 1    
    60   29   30 am   BACKBONE|DICT|INTERRES
    61   29   99 1    
    62   30   31 2    
    63   30   32 1    
    64   32   33 1    
    65   32   34 1    
    66   32  100 1    
    67   33  101 1    
    68   33  102 1    
    69   33  103 1    
    70   34   35 am   BACKBONE|DICT|INTERRES
    71   34  104 1    
    72   35   36 2    
    73   37   38 2    
    74   37   39 am   BACKBONE|DICT|INTERRES
    75   39   40 1    
    76   39  105 1    
    77   40   41 1    
    78   40   42 1    
    79   40  106 1    
    80   41  107 1    
    81   41  108 1    
    82   41  109 1    
    83   42   43 2    
    84   42   44 am   BACKBONE|DICT|INTERRES
    85   44   45 1    
    86   44  110 1    
    87   45   46 1    
    88   45   47 1    
    89   45  111 1    
    90   46  112 1    
    91   46  113 1    
    92   46  114 1    
    93   47   48 2    
    94   47   49 am   BACKBONE|DICT|INTERRES
    95   49   50 1    
    96   49  115 1    
    97   50   51 1    
    98   50   52 1    
    99   50  116 1    
   100   51  117 1    
   101   51  118 1    
   102   51  119 1    
   103   52   53 2    
   104   52   54 am   BACKBONE|DICT|INTERRES
   105   54   55 1    
   106   54  120 1    
   107   55   56 1    
   108   55   57 1    
   109   55  121 1    
   110   56  122 1    
   111   56  123 1    
   112   56  124 1    
   113   57   58 2    
   114   57   59 am   BACKBONE|DICT|INTERRES
   115   59   60 1    
   116   59  125 1    
   117   60   61 1    
   118   60   62 1    
   119   60  126 1    
   120   61  127 1    
   121   61  128 1    
   122   61  129 1    
   123   62   63 2    
   124   62   64 am   BACKBONE|DICT|INTERRES
   125   64   65 1    
   126   64  130 1    
   127   65   66 1    
   128   65   69 1    
   129   65  131 1    
   130   66   67 am   BACKBONE|DICT|INTERRES
   131   66   68 2    
   132   67  132 1    
   133   67  133 1    
   134   69   70 1    
   135   69  134 1    
   136   69  135 1    
   137   70   71 1    
   138   71  136 1    
   139   71  137 1    
@<TRIPOS>SUBSTRUCTURE
     1 UNK         1 GROUP             0       ****    0 ROOT    
