@<TRIPOS>MOLECULE
3R136
137   139    1
SMALL
USER_CHARGES


@<TRIPOS>ATOM
      1 CA         26.5007   21.5843   -0.3023 C.3       0 UNK        -0.1979 
      2 C          27.1604   21.0042    0.9466 C.2       0 UNK         0.4864 
      3 O          26.5375   20.2011    1.6384 O.2       0 UNK        -0.5359 
      4 N          28.4111   21.3606    1.2726 N.am      1 UNK        -0.4318 
      5 CA         29.2547   22.3591    0.6049 C.3       1 UNK         0.0824 
      6 C6         30.7619   22.1275    0.8837 C.3       12 UNK        -0.0944 
      7 S7         31.1922   21.9511    2.6544 S.3       12 UNK        -0.2672 
      8 C8         32.6063   23.0847    2.8244 C.3       12 UNK         0.0333 
      9 C9         32.1634   24.5269    3.0207 C.ar      12 UNK        -0.0807 
     10 C10        31.8720   24.9990    4.3046 C.ar      12 UNK        -0.0894 
     11 C11        31.5049   26.3334    4.5031 C.ar      12 UNK        -0.0804 
     12 C12        31.4125   27.1914    3.4047 C.ar      12 UNK        -0.0824 
     13 C13        31.6858   26.7275    2.1155 C.ar      12 UNK        -0.0762 
     14 C14        32.0684   25.3959    1.9292 C.ar      12 UNK        -0.0782 
     15 C15        31.5338   27.6601    0.9254 C.3       12 UNK         0.0230 
     16 S16        29.7747   27.9370    0.5856 S.3       12 UNK        -0.2608 
     17 C17        29.8144   28.7781   -1.0276 C.3       12 UNK        -0.0989 
     18 CA         28.4343   28.7720   -1.7320 C.3       5 UNK         0.0716 
     19 N          27.8597   27.4246   -1.8173 N.am      5 UNK        -0.4135 
     20 C          26.9154   27.0540   -2.6920 C.2       4 UNK         0.5031 
     21 O          26.4827   27.7797   -3.5880 O.2       4 UNK        -0.5229 
     22 CA         26.3435   25.6396   -2.5247 C.3       4 UNK         0.0329 
     23 CB         27.3185   24.5772   -3.0601 C.3       4 UNK        -0.2001 
     24 N          26.0099   25.3603   -1.1258 N.am      4 UNK        -0.4303 
     25 C          24.8719   25.7605   -0.5361 C.2       3 UNK         0.5044 
     26 O          23.9959   26.4024   -1.1164 O.2       3 UNK        -0.5152 
     27 CA         24.6427   25.3718    0.9379 C.3       3 UNK         0.0319 
     28 CB         23.6621   24.1914    1.0351 C.3       3 UNK        -0.2001 
     29 N          25.8676   25.0339    1.6652 N.am      3 UNK        -0.4354 
     30 C          26.7964   25.9236    2.0396 C.2       2 UNK         0.4964 
     31 O          26.7038   27.1318    1.8297 O.2       2 UNK        -0.5047 
     32 CA         28.0541   25.3620    2.7251 C.3       2 UNK         0.0288 
     33 CB         27.8493   25.2701    4.2451 C.3       2 UNK        -0.2113 
     34 N          28.4825   24.0568    2.2087 N.am      2 UNK        -0.4145 
     35 C          28.8123   23.7985    0.9335 C.2       1 UNK         0.5006 
     36 O          28.7129   24.6196    0.0205 O.2       1 UNK        -0.5103 
     37 C          27.4519   29.7763   -1.0898 C.2       5 UNK         0.5055 
     38 O          27.4324   30.9382   -1.4990 O.2       5 UNK        -0.5220 
     39 N          26.6524   29.3068   -0.1174 N.am      6 UNK        -0.4450 
     40 CA         25.6159   30.0347    0.6234 C.3       6 UNK         0.0367 
     41 CB         24.4846   30.5009   -0.3177 C.3       6 UNK        -0.1929 
     42 C          26.1625   31.1653    1.5188 C.2       6 UNK         0.5070 
     43 O          25.4280   32.1063    1.8254 O.2       6 UNK        -0.5237 
     44 N          27.4246   31.0519    1.9491 N.am      7 UNK        -0.4739 
     45 CA         28.0992   31.9834    2.8489 C.3       7 UNK         0.0276 
     46 CB         28.5812   33.2208    2.0686 C.3       7 UNK        -0.1927 
     47 C          29.2844   31.2645    3.4968 C.2       7 UNK         0.5013 
     48 O          29.8986   30.4089    2.8564 O.2       7 UNK        -0.5193 
     49 N          29.6274   31.6496    4.7319 N.am      8 UNK        -0.4253 
     50 CA         30.7813   31.1329    5.4741 C.3       8 UNK         0.0242 
     51 CB         30.5490   31.3446    6.9817 C.3       8 UNK        -0.2000 
     52 C          32.0922   31.7735    4.9773 C.2       8 UNK         0.4948 
     53 O          32.7197   32.5460    5.7036 O.2       8 UNK        -0.5275 
     54 N          32.4492   31.4760    3.7211 N.am      9 UNK        -0.4246 
     55 CA         33.5660   32.0766    2.9857 C.3       9 UNK         0.0261 
     56 CB         33.4796   31.6491    1.5113 C.3       9 UNK        -0.1959 
     57 C          34.9585   31.7541    3.5569 C.2       9 UNK         0.5033 
     58 O          35.8616   32.5827    3.4307 O.2       9 UNK        -0.5390 
     59 N          35.1075   30.5712    4.1646 N.am      10 UNK        -0.4215 
     60 CA         36.3357   30.0849    4.7977 C.3       10 UNK         0.0240 
     61 CB         37.4387   29.7946    3.7576 C.3       10 UNK        -0.1982 
     62 C          36.0341   28.8332    5.6266 C.2       10 UNK         0.4970 
     63 O          36.4363   28.7642    6.7878 O.2       10 UNK        -0.4916 
     64 N          35.3196   27.8818    5.0092 N.am      11 UNK        -0.4279 
     65 CA         34.8705   26.6060    5.5953 C.3       11 UNK         0.1003 
     66 C          36.0065   25.5780    5.8849 C.2       11 UNK         0.5709 
     67 N          37.2102   25.7541    5.3523 N.am      11 UNK        -0.7358 
     68 O          35.7896   24.5846    6.5751 O.2       11 UNK        -0.4999 
     69 C69        33.8970   26.7756    6.8016 C.3       12 UNK        -0.0954 
     70 S70        32.5319   27.9508    6.5006 S.3       12 UNK        -0.2268 
     71 C71        31.2078   26.8555    5.9000 C.3       12 UNK         0.0203 
     72 H72        25.4977   21.1767   -0.4276 H         1 UNK         0.0888 
     73 H73        26.4098   22.6659   -0.2378 H         1 UNK         0.0888 
     74 H74        27.0710   21.3314   -1.1956 H         1 UNK         0.0888 
     75 H75        28.8336   20.9355    2.0865 H         1 UNK         0.3017 
     76 H76        29.1257   22.2402   -0.4726 H         1 UNK         0.0873 
     77 H77        31.0756   21.2073    0.3882 H         1 UNK         0.0745 
     78 H78        31.3599   22.9150    0.4231 H         1 UNK         0.0745 
     79 H79        33.2014   22.7693    3.6829 H         1 UNK         0.0705 
     80 H80        33.2627   22.9948    1.9575 H         1 UNK         0.0705 
     81 H81        31.9461   24.3297    5.1509 H         1 UNK         0.1334 
     82 H82        31.1112   28.2192    3.5499 H         1 UNK         0.1417 
     83 H83        32.2850   25.0362    0.9331 H         1 UNK         0.1562 
     84 H84        32.0192   27.2419    0.0424 H         1 UNK         0.0748 
     85 H85        32.0177   28.6152    1.1332 H         1 UNK         0.0748 
     86 H86        30.5433   28.2728   -1.6630 H         1 UNK         0.0940 
     87 H87        30.1869   29.7960   -0.8942 H         1 UNK         0.0940 
     88 H88        28.6011   29.1201   -2.7540 H         1 UNK         0.0703 
     89 H89        28.1776   26.7619   -1.1210 H         1 UNK         0.3081 
     90 H90        25.4307   25.5757   -3.1217 H         1 UNK         0.0719 
     91 H91        28.2809   24.6046   -2.5493 H         1 UNK         0.0809 
     92 H92        26.9093   23.5727   -2.9521 H         1 UNK         0.0809 
     93 H93        27.5137   24.7337   -4.1218 H         1 UNK         0.0809 
     94 H94        26.7247   24.9069   -0.5700 H         1 UNK         0.2990 
     95 H95        24.1849   26.2329    1.4301 H         1 UNK         0.0690 
     96 H96        23.4277   23.9540    2.0730 H         1 UNK         0.0788 
     97 H97        24.0600   23.2916    0.5654 H         1 UNK         0.0788 
     98 H98        22.7191   24.4263    0.5391 H         1 UNK         0.0788 
     99 H99        26.0107   24.0631    1.9003 H         1 UNK         0.2993 
    100 H100       28.8666   26.0642    2.5396 H         1 UNK         0.0949 
    101 H101       27.5696   26.2402    4.6586 H         1 UNK         0.0767 
    102 H102       27.0622   24.5618    4.5066 H         1 UNK         0.0767 
    103 H103       28.7645   24.9584    4.7490 H         1 UNK         0.0767 
    104 H104       28.6018   23.3184    2.8870 H         1 UNK         0.3013 
    105 H105       26.8132   28.3624    0.2198 H         1 UNK         0.3121 
    106 H106       25.1801   29.3074    1.3095 H         1 UNK         0.0774 
    107 H107       23.6402   30.8940    0.2497 H         1 UNK         0.0815 
    108 H108       24.8171   31.2906   -0.9919 H         1 UNK         0.0815 
    109 H109       24.1094   29.6758   -0.9236 H         1 UNK         0.0815 
    110 H110       27.9743   30.2396    1.6915 H         1 UNK         0.2987 
    111 H111       27.4033   32.2898    3.6331 H         1 UNK         0.0949 
    112 H112       29.2614   32.9445    1.2617 H         1 UNK         0.0806 
    113 H113       27.7461   33.7660    1.6287 H         1 UNK         0.0806 
    114 H114       29.1119   33.9153    2.7210 H         1 UNK         0.0806 
    115 H115       29.1036   32.3904    5.1761 H         1 UNK         0.3010 
    116 H116       30.8546   30.0580    5.2999 H         1 UNK         0.0829 
    117 H117       29.6516   30.8269    7.3207 H         1 UNK         0.0813 
    118 H118       31.3852   30.9516    7.5618 H         1 UNK         0.0813 
    119 H119       30.4442   32.4008    7.2330 H         1 UNK         0.0813 
    120 H120       31.8106   30.8897    3.1909 H         1 UNK         0.3038 
    121 H121       33.4404   33.1604    3.0328 H         1 UNK         0.0769 
    122 H122       32.5262   31.9377    1.0680 H         1 UNK         0.0811 
    123 H123       33.5907   30.5703    1.3966 H         1 UNK         0.0811 
    124 H124       34.2664   32.1217    0.9216 H         1 UNK         0.0811 
    125 H125       34.2852   29.9959    4.2845 H         1 UNK         0.3204 
    126 H126       36.6935   30.8564    5.4830 H         1 UNK         0.0748 
    127 H127       37.7705   30.7053    3.2593 H         1 UNK         0.0771 
    128 H128       38.3177   29.3560    4.2321 H         1 UNK         0.0771 
    129 H129       37.0999   29.1004    2.9880 H         1 UNK         0.0771 
    130 H130       35.0925   28.0025    4.0336 H         1 UNK         0.2980 
    131 H131       34.3048   26.1344    4.7944 H         1 UNK         0.0545 
    132 H132       37.9337   25.0773    5.5370 H         1 UNK         0.3459 
    133 H133       37.4036   26.5556    4.7748 H         1 UNK         0.3459 
    134 H134       33.4671   25.8129    7.0832 H         1 UNK         0.0616 
    135 H135       34.4437   27.1246    7.6787 H         1 UNK         0.0616 
    136 H136       31.0608   26.0356    6.6046 H         1 UNK         0.0634 
    137 H137       30.2711   27.4145    5.8808 H         1 UNK         0.0634 
@<TRIPOS>BOND
     1    1    2 1    
     2    1   72 1    
     3    1   73 1    
     4    1   74 1    
     5    2    3 2    
     6    2    4 am   BACKBONE|DICT|INTERRES
     7    4    5 1    
     8    4   75 1    
     9    5    6 1    
    10    5   35 1    
    11    5   76 1    
    12    6    7 1    
    13    6   77 1    
    14    6   78 1    
    15    7    8 1    
    16    8    9 1    
    17    8   79 1    
    18    8   80 1    
    19    9   10 ar   
    20    9   14 ar   
    21   10   11 ar   
    22   10   81 1    
    23   11   12 ar   
    24   11   71 1    
    25   12   13 ar   
    26   12   82 1    
    27   13   14 ar   
    28   13   15 1    
    29   14   83 1    
    30   15   16 1    
    31   15   84 1    
    32   15   85 1    
    33   16   17 1    
    34   17   18 1    
    35   17   86 1    
    36   17   87 1    
    37   18   19 1    
    38   18   37 1    
    39   18   88 1    
    40   19   20 am   BACKBONE|DICT|INTERRES
    41   19   89 1    
    42   20   21 2    
    43   20   22 1    
    44   22   23 1    
    45   22   24 1    
    46   22   90 1    
    47   23   91 1    
    48   23   92 1    
    49   23   93 1    
    50   24   25 am   BACKBONE|DICT|INTERRES
    51   24   94 1    
    52   25   26 2    
    53   25   27 1    
    54   27   28 1    
    55   27   29 1    
    56   27   95 1    
    57   28   96 1    
    58   28   97 1    
    59   28   98 1    
    60   29   30 am   BACKBONE|DICT|INTERRES
    61   29   99 1    
    62   30   31 2    
    63   30   32 1    
    64   32   33 1    
    65   32   34 1    
    66   32  100 1    
    67   33  101 1    
    68   33  102 1    
    69   33  103 1    
    70   34   35 am   BACKBONE|DICT|INTERRES
    71   34  104 1    
    72   35   36 2    
    73   37   38 2    
    74   37   39 am   BACKBONE|DICT|INTERRES
    75   39   40 1    
    76   39  105 1    
    77   40   41 1    
    78   40   42 1    
    79   40  106 1    
    80   41  107 1    
    81   41  108 1    
    82   41  109 1    
    83   42   43 2    
    84   42   44 am   BACKBONE|DICT|INTERRES
    85   44   45 1    
    86   44  110 1    
    87   45   46 1    
    88   45   47 1    
    89   45  111 1    
    90   46  112 1    
    91   46  113 1    
    92   46  114 1    
    93   47   48 2    
    94   47   49 am   BACKBONE|DICT|INTERRES
    95   49   50 1    
    96   49  115 1    
    97   50   51 1    
    98   50   52 1    
    99   50  116 1    
   100   51  117 1    
   101   51  118 1    
   102   51  119 1    
   103   52   53 2    
   104   52   54 am   BACKBONE|DICT|INTERRES
   105   54   55 1    
   106   54  120 1    
   107   55   56 1    
   108   55   57 1    
   109   55  121 1    
   110   56  122 1    
   111   56  123 1    
   112   56  124 1    
   113   57   58 2    
   114   57   59 am   BACKBONE|DICT|INTERRES
   115   59   60 1    
   116   59  125 1    
   117   60   61 1    
   118   60   62 1    
   119   60  126 1    
   120   61  127 1    
   121   61  128 1    
   122   61  129 1    
   123   62   63 2    
   124   62   64 am   BACKBONE|DICT|INTERRES
   125   64   65 1    
   126   64  130 1    
   127   65   66 1    
   128   65   69 1    
   129   65  131 1    
   130   66   67 am   BACKBONE|DICT|INTERRES
   131   66   68 2    
   132   67  132 1    
   133   67  133 1    
   134   69   70 1    
   135   69  134 1    
   136   69  135 1    
   137   70   71 1    
   138   71  136 1    
   139   71  137 1    
@<TRIPOS>SUBSTRUCTURE
     1 UNK         1 GROUP             0       ****    0 ROOT    
