@<TRIPOS>MOLECULE
3R136
137   139    1
SMALL
USER_CHARGES


@<TRIPOS>ATOM
      1 CA         27.9752   23.0133   -1.5221 C.3       0 UNK        -0.1979 
      2 C          27.8496   21.7904   -0.6216 C.2       0 UNK         0.4864 
      3 O          27.1623   20.8391   -0.9895 O.2       0 UNK        -0.5359 
      4 N          28.4800   21.7641    0.5585 N.am      1 UNK        -0.4318 
      5 CA         29.3280   22.8117    1.1421 C.3       1 UNK         0.0824 
      6 C6         30.5212   22.1811    1.9100 C.3       12 UNK        -0.0944 
      7 S7         31.6439   21.3024    0.7639 S.3       12 UNK        -0.2672 
      8 C8         33.2206   22.2151    0.9250 C.3       12 UNK         0.0333 
      9 C9         33.0871   23.7298    0.7885 C.ar      12 UNK        -0.0807 
     10 C10        33.7497   24.5638    1.6928 C.ar      12 UNK        -0.0894 
     11 C11        33.6087   25.9533    1.6232 C.ar      12 UNK        -0.0804 
     12 C12        32.7902   26.5120    0.6361 C.ar      12 UNK        -0.0824 
     13 C13        32.1350   25.6885   -0.2862 C.ar      12 UNK        -0.0762 
     14 C14        32.3076   24.3030   -0.2206 C.ar      12 UNK        -0.0782 
     15 C15        31.1995   26.2796   -1.3269 C.3       12 UNK         0.0230 
     16 S16        29.5120   26.3111   -0.6619 S.3       12 UNK        -0.2608 
     17 C17        28.4981   26.6016   -2.1511 C.3       12 UNK        -0.0989 
     18 CA         27.1367   27.2941   -1.8499 C.3       5 UNK         0.0716 
     19 N          26.3104   26.5442   -0.9014 N.am      5 UNK        -0.4135 
     20 C          25.2842   25.7475   -1.2282 C.2       4 UNK         0.5031 
     21 O          24.9677   25.4968   -2.3923 O.2       4 UNK        -0.5229 
     22 CA         24.4564   25.1107   -0.0908 C.3       4 UNK         0.0329 
     23 CB         24.5700   23.5780   -0.0988 C.3       4 UNK        -0.2001 
     24 N          24.8071   25.6004    1.2429 N.am      4 UNK        -0.4303 
     25 C          24.3861   26.7609    1.7644 C.2       3 UNK         0.5044 
     26 O          23.5805   27.5061    1.2062 O.2       3 UNK        -0.5152 
     27 CA         24.9609   27.1724    3.1347 C.3       3 UNK         0.0319 
     28 CB         23.9257   26.9316    4.2454 C.3       3 UNK        -0.2001 
     29 N          26.2188   26.5116    3.5054 N.am      3 UNK        -0.4354 
     30 C          27.3680   26.5817    2.8193 C.2       2 UNK         0.4964 
     31 O          27.4830   27.1862    1.7536 O.2       2 UNK        -0.5047 
     32 CA         28.5963   25.8618    3.4046 C.3       2 UNK         0.0288 
     33 CB         28.3824   25.2691    4.8174 C.3       2 UNK        -0.2113 
     34 N          29.1311   24.8436    2.4936 N.am      2 UNK        -0.4145 
     35 C          28.4978   23.7485    2.0462 C.2       1 UNK         0.5006 
     36 O          27.3276   23.4701    2.3253 O.2       1 UNK        -0.5103 
     37 C          27.2286   28.7595   -1.3773 C.2       5 UNK         0.5055 
     38 O          26.2371   29.3049   -0.8869 O.2       5 UNK        -0.5220 
     39 N          28.3958   29.3890   -1.5647 N.am      6 UNK        -0.4450 
     40 CA         28.6602   30.7895   -1.2318 C.3       6 UNK         0.0367 
     41 CB         29.9376   31.2382   -1.9621 C.3       6 UNK        -0.1929 
     42 C          28.7909   31.0656    0.2766 C.2       6 UNK         0.5070 
     43 O          28.6695   32.2263    0.6693 O.2       6 UNK        -0.5237 
     44 N          29.0637   30.0218    1.0791 N.am      7 UNK        -0.4739 
     45 CA         29.3391   30.0686    2.5238 C.3       7 UNK         0.0276 
     46 CB         28.0576   30.4194    3.3092 C.3       7 UNK        -0.1927 
     47 C          30.5264   30.9973    2.8553 C.2       7 UNK         0.5013 
     48 O          30.4082   31.8911    3.6954 O.2       7 UNK        -0.5193 
     49 N          31.6343   30.7993    2.1284 N.am      8 UNK        -0.4253 
     50 CA         32.8343   31.6316    2.1876 C.3       8 UNK         0.0242 
     51 CB         33.7451   31.2810    0.9993 C.3       8 UNK        -0.2000 
     52 C          33.5952   31.4719    3.5132 C.2       8 UNK         0.4948 
     53 O          33.9273   30.3451    3.8889 O.2       8 UNK        -0.5275 
     54 N          33.9001   32.6074    4.1589 N.am      9 UNK        -0.4246 
     55 CA         34.7088   32.7460    5.3760 C.3       9 UNK         0.0261 
     56 CB         36.2053   32.5565    5.0342 C.3       9 UNK        -0.1959 
     57 C          34.2026   31.8450    6.5206 C.2       9 UNK         0.5033 
     58 O          33.0692   32.0235    6.9713 O.2       9 UNK        -0.5390 
     59 N          35.0302   30.8829    6.9510 N.am      10 UNK        -0.4215 
     60 CA         34.7258   29.8965    7.9910 C.3       10 UNK         0.0240 
     61 CB         35.9953   29.0855    8.2994 C.3       10 UNK        -0.1982 
     62 C          33.5562   28.9535    7.6506 C.2       10 UNK         0.4970 
     63 O          32.9648   28.3909    8.5732 O.2       10 UNK        -0.4916 
     64 N          33.2352   28.8009    6.3588 N.am      11 UNK        -0.4279 
     65 CA         32.0791   28.0311    5.8770 C.3       11 UNK         0.1003 
     66 C          30.7335   28.8088    5.9664 C.2       11 UNK         0.5709 
     67 N          30.7065   30.0652    6.3970 N.am      11 UNK        -0.7358 
     68 O          29.6866   28.2573    5.6416 O.2       11 UNK        -0.4999 
     69 C69        32.3128   27.4500    4.4560 C.3       12 UNK        -0.0954 
     70 S70        33.8724   26.5133    4.3313 S.3       12 UNK        -0.2268 
     71 C71        34.3610   26.8392    2.6078 C.3       12 UNK         0.0203 
     72 H72        27.2878   22.9446   -2.3650 H         1 UNK         0.0888 
     73 H73        27.7295   23.9191   -0.9711 H         1 UNK         0.0888 
     74 H74        28.9871   23.1010   -1.9170 H         1 UNK         0.0888 
     75 H75        28.3403   20.9596    1.1519 H         1 UNK         0.3017 
     76 H76        29.7362   23.4355    0.3482 H         1 UNK         0.0873 
     77 H77        31.0895   22.9330    2.4597 H         1 UNK         0.0745 
     78 H78        30.1661   21.4719    2.6600 H         1 UNK         0.0745 
     79 H79        33.9143   21.8540    0.1649 H         1 UNK         0.0705 
     80 H80        33.6603   21.9574    1.8899 H         1 UNK         0.0705 
     81 H81        34.3723   24.1331    2.4655 H         1 UNK         0.1334 
     82 H82        32.6610   27.5841    0.5853 H         1 UNK         0.1417 
     83 H83        31.8006   23.6662   -0.9328 H         1 UNK         0.1562 
     84 H84        31.2265   25.6825   -2.2400 H         1 UNK         0.0748 
     85 H85        31.5101   27.2893   -1.5995 H         1 UNK         0.0748 
     86 H86        28.3096   25.6370   -2.6228 H         1 UNK         0.0940 
     87 H87        29.0707   27.1628   -2.8914 H         1 UNK         0.0940 
     88 H88        26.6040   27.3612   -2.8007 H         1 UNK         0.0703 
     89 H89        26.5112   26.7361    0.0763 H         1 UNK         0.3081 
     90 H90        23.4130   25.3630   -0.2917 H         1 UNK         0.0719 
     91 H91        24.3966   23.1675   -1.0947 H         1 UNK         0.0809 
     92 H92        25.5543   23.2481    0.2275 H         1 UNK         0.0809 
     93 H93        23.8348   23.1269    0.5676 H         1 UNK         0.0809 
     94 H94        25.4724   25.0497    1.7706 H         1 UNK         0.2990 
     95 H95        25.1623   28.2443    3.0829 H         1 UNK         0.0690 
     96 H96        24.2741   27.3159    5.2043 H         1 UNK         0.0788 
     97 H97        23.7047   25.8704    4.3670 H         1 UNK         0.0788 
     98 H98        22.9851   27.4365    4.0200 H         1 UNK         0.0788 
     99 H99        26.2126   25.9765    4.3618 H         1 UNK         0.2993 
    100 H100       29.3605   26.6334    3.4838 H         1 UNK         0.0949 
    101 H101       29.3135   24.8586    5.2085 H         1 UNK         0.0767 
    102 H102       28.0574   26.0348    5.5231 H         1 UNK         0.0767 
    103 H103       27.6415   24.4690    4.8272 H         1 UNK         0.0767 
    104 H104       30.0645   25.0248    2.1506 H         1 UNK         0.3013 
    105 H105       29.1641   28.8649   -1.9566 H         1 UNK         0.3121 
    106 H106       27.8262   31.3908   -1.6007 H         1 UNK         0.0774 
    107 H107       30.1503   32.2902   -1.7659 H         1 UNK         0.0815 
    108 H108       30.8095   30.6662   -1.6421 H         1 UNK         0.0815 
    109 H109       29.8388   31.1276   -3.0421 H         1 UNK         0.0815 
    110 H110       29.0891   29.1021    0.6588 H         1 UNK         0.2987 
    111 H111       29.6401   29.0627    2.8197 H         1 UNK         0.0949 
    112 H112       27.7196   31.4354    3.1034 H         1 UNK         0.0806 
    113 H113       27.2436   29.7391    3.0609 H         1 UNK         0.0806 
    114 H114       28.2269   30.3438    4.3836 H         1 UNK         0.0806 
    115 H115       31.6411   30.0442    1.4603 H         1 UNK         0.3010 
    116 H116       32.5208   32.6724    2.0797 H         1 UNK         0.0829 
    117 H117       33.2394   31.4446    0.0474 H         1 UNK         0.0813 
    118 H118       34.6419   31.9022    0.9994 H         1 UNK         0.0813 
    119 H119       34.0714   30.2406    1.0337 H         1 UNK         0.0813 
    120 H120       33.5379   33.4736    3.7851 H         1 UNK         0.3038 
    121 H121       34.5773   33.7724    5.7220 H         1 UNK         0.0769 
    122 H122       36.8374   32.7121    5.9097 H         1 UNK         0.0811 
    123 H123       36.5257   33.2802    4.2845 H         1 UNK         0.0811 
    124 H124       36.4168   31.5633    4.6356 H         1 UNK         0.0811 
    125 H125       35.9287   30.7983    6.4982 H         1 UNK         0.3204 
    126 H126       34.4430   30.4464    8.8911 H         1 UNK         0.0748 
    127 H127       36.8097   29.7305    8.6303 H         1 UNK         0.0771 
    128 H128       35.8136   28.3632    9.0967 H         1 UNK         0.0771 
    129 H129       36.3390   28.5276    7.4272 H         1 UNK         0.0771 
    130 H130       33.7384   29.3188    5.6456 H         1 UNK         0.2980 
    131 H131       31.9562   27.1741    6.5418 H         1 UNK         0.0545 
    132 H132       29.8253   30.5499    6.4363 H         1 UNK         0.3459 
    133 H133       31.5594   30.5576    6.6325 H         1 UNK         0.3459 
    134 H134       31.5079   26.7677    4.1852 H         1 UNK         0.0616 
    135 H135       32.3046   28.2478    3.7126 H         1 UNK         0.0616 
    136 H136       34.2254   27.8975    2.3791 H         1 UNK         0.0634 
    137 H137       35.4290   26.6413    2.5082 H         1 UNK         0.0634 
@<TRIPOS>BOND
     1    1    2 1    
     2    1   72 1    
     3    1   73 1    
     4    1   74 1    
     5    2    3 2    
     6    2    4 am   BACKBONE|DICT|INTERRES
     7    4    5 1    
     8    4   75 1    
     9    5    6 1    
    10    5   35 1    
    11    5   76 1    
    12    6    7 1    
    13    6   77 1    
    14    6   78 1    
    15    7    8 1    
    16    8    9 1    
    17    8   79 1    
    18    8   80 1    
    19    9   10 ar   
    20    9   14 ar   
    21   10   11 ar   
    22   10   81 1    
    23   11   12 ar   
    24   11   71 1    
    25   12   13 ar   
    26   12   82 1    
    27   13   14 ar   
    28   13   15 1    
    29   14   83 1    
    30   15   16 1    
    31   15   84 1    
    32   15   85 1    
    33   16   17 1    
    34   17   18 1    
    35   17   86 1    
    36   17   87 1    
    37   18   19 1    
    38   18   37 1    
    39   18   88 1    
    40   19   20 am   BACKBONE|DICT|INTERRES
    41   19   89 1    
    42   20   21 2    
    43   20   22 1    
    44   22   23 1    
    45   22   24 1    
    46   22   90 1    
    47   23   91 1    
    48   23   92 1    
    49   23   93 1    
    50   24   25 am   BACKBONE|DICT|INTERRES
    51   24   94 1    
    52   25   26 2    
    53   25   27 1    
    54   27   28 1    
    55   27   29 1    
    56   27   95 1    
    57   28   96 1    
    58   28   97 1    
    59   28   98 1    
    60   29   30 am   BACKBONE|DICT|INTERRES
    61   29   99 1    
    62   30   31 2    
    63   30   32 1    
    64   32   33 1    
    65   32   34 1    
    66   32  100 1    
    67   33  101 1    
    68   33  102 1    
    69   33  103 1    
    70   34   35 am   BACKBONE|DICT|INTERRES
    71   34  104 1    
    72   35   36 2    
    73   37   38 2    
    74   37   39 am   BACKBONE|DICT|INTERRES
    75   39   40 1    
    76   39  105 1    
    77   40   41 1    
    78   40   42 1    
    79   40  106 1    
    80   41  107 1    
    81   41  108 1    
    82   41  109 1    
    83   42   43 2    
    84   42   44 am   BACKBONE|DICT|INTERRES
    85   44   45 1    
    86   44  110 1    
    87   45   46 1    
    88   45   47 1    
    89   45  111 1    
    90   46  112 1    
    91   46  113 1    
    92   46  114 1    
    93   47   48 2    
    94   47   49 am   BACKBONE|DICT|INTERRES
    95   49   50 1    
    96   49  115 1    
    97   50   51 1    
    98   50   52 1    
    99   50  116 1    
   100   51  117 1    
   101   51  118 1    
   102   51  119 1    
   103   52   53 2    
   104   52   54 am   BACKBONE|DICT|INTERRES
   105   54   55 1    
   106   54  120 1    
   107   55   56 1    
   108   55   57 1    
   109   55  121 1    
   110   56  122 1    
   111   56  123 1    
   112   56  124 1    
   113   57   58 2    
   114   57   59 am   BACKBONE|DICT|INTERRES
   115   59   60 1    
   116   59  125 1    
   117   60   61 1    
   118   60   62 1    
   119   60  126 1    
   120   61  127 1    
   121   61  128 1    
   122   61  129 1    
   123   62   63 2    
   124   62   64 am   BACKBONE|DICT|INTERRES
   125   64   65 1    
   126   64  130 1    
   127   65   66 1    
   128   65   69 1    
   129   65  131 1    
   130   66   67 am   BACKBONE|DICT|INTERRES
   131   66   68 2    
   132   67  132 1    
   133   67  133 1    
   134   69   70 1    
   135   69  134 1    
   136   69  135 1    
   137   70   71 1    
   138   71  136 1    
   139   71  137 1    
@<TRIPOS>SUBSTRUCTURE
     1 UNK         1 GROUP             0       ****    0 ROOT    
