@<TRIPOS>MOLECULE
3R136
137   139    1
SMALL
USER_CHARGES


@<TRIPOS>ATOM
      1 CA         28.6244   18.1165   -1.0467 C.3       0 UNK        -0.1979 
      2 C          29.8275   19.0480   -1.0395 C.2       0 UNK         0.4864 
      3 O          30.7619   18.8458   -1.8161 O.2       0 UNK        -0.5359 
      4 N          29.8109   20.0660   -0.1679 N.am      1 UNK        -0.4318 
      5 CA         30.8898   21.0515   -0.0078 C.3       1 UNK         0.0824 
      6 C6         30.7502   21.8607    1.3081 C.3       12 UNK        -0.0944 
      7 S7         30.8078   20.8031    2.7919 S.3       12 UNK        -0.2672 
      8 C8         29.1102   20.9840    3.4453 C.3       12 UNK         0.0333 
      9 C9         28.7691   22.3389    4.0747 C.ar      12 UNK        -0.0807 
     10 C10        29.7465   23.2608    4.4791 C.ar      12 UNK        -0.0894 
     11 C11        29.3807   24.4603    5.0979 C.ar      12 UNK        -0.0804 
     12 C12        28.0319   24.7327    5.3330 C.ar      12 UNK        -0.0824 
     13 C13        27.0449   23.8440    4.9076 C.ar      12 UNK        -0.0762 
     14 C14        27.4200   22.6487    4.2860 C.ar      12 UNK        -0.0782 
     15 C15        25.5755   24.1754    5.1210 C.3       12 UNK         0.0230 
     16 S16        24.8813   25.0732    3.6961 S.3       12 UNK        -0.2608 
     17 C17        25.3586   26.8099    4.0265 C.3       12 UNK        -0.0989 
     18 CA         26.6364   27.2764    3.2706 C.3       5 UNK         0.0716 
     19 N          26.6360   26.9380    1.8454 N.am      5 UNK        -0.4135 
     20 C          25.8608   27.4468    0.8774 C.2       4 UNK         0.5031 
     21 O          24.9250   28.2220    1.0816 O.2       4 UNK        -0.5229 
     22 CA         26.2162   27.0358   -0.5704 C.3       4 UNK         0.0329 
     23 CB         25.9889   28.1902   -1.5694 C.3       4 UNK        -0.2001 
     24 N          27.5755   26.4853   -0.7245 N.am      4 UNK        -0.4303 
     25 C          28.7383   27.0885   -0.4212 C.2       3 UNK         0.5044 
     26 O          28.8120   28.2284    0.0371 O.2       3 UNK        -0.5152 
     27 CA         30.0280   26.2619   -0.5633 C.3       3 UNK         0.0319 
     28 CB         30.6485   26.0051    0.8223 C.3       3 UNK        -0.2001 
     29 N          29.8160   24.9655   -1.2084 N.am      3 UNK        -0.4354 
     30 C          29.8796   24.7236   -2.5249 C.2       2 UNK         0.4964 
     31 O          30.0698   25.6005   -3.3686 O.2       2 UNK        -0.5047 
     32 CA         29.6783   23.2568   -2.9707 C.3       2 UNK         0.0288 
     33 CB         30.5265   22.8938   -4.2087 C.3       2 UNK        -0.2113 
     34 N          29.8705   22.2741   -1.8894 N.am      2 UNK        -0.4145 
     35 C          30.9995   22.0227   -1.2024 C.2       1 UNK         0.5006 
     36 O          32.0848   22.5538   -1.4418 O.2       1 UNK        -0.5103 
     37 C          26.9796   28.7660    3.5309 C.2       5 UNK         0.5055 
     38 O          26.5423   29.3218    4.5409 O.2       5 UNK        -0.5220 
     39 N          27.7319   29.4008    2.6170 N.am      6 UNK        -0.4450 
     40 CA         28.0530   30.8258    2.6532 C.3       6 UNK         0.0367 
     41 CB         28.3544   31.3072    1.2239 C.3       6 UNK        -0.1929 
     42 C          29.2212   31.1025    3.6120 C.2       6 UNK         0.5070 
     43 O          30.3823   30.9155    3.2376 O.2       6 UNK        -0.5237 
     44 N          28.8916   31.5377    4.8347 N.am      7 UNK        -0.4739 
     45 CA         29.8374   31.9351    5.8820 C.3       7 UNK         0.0276 
     46 CB         29.0566   32.3252    7.1465 C.3       7 UNK        -0.1927 
     47 C          30.7501   33.0883    5.4359 C.2       7 UNK         0.5013 
     48 O          30.2636   34.0511    4.8379 O.2       7 UNK        -0.5193 
     49 N          32.0533   32.9527    5.7130 N.am      8 UNK        -0.4253 
     50 CA         33.1729   33.8401    5.3673 C.3       8 UNK         0.0242 
     51 CB         32.9849   35.2578    5.9424 C.3       8 UNK        -0.2000 
     52 C          33.5029   33.8827    3.8645 C.2       8 UNK         0.4948 
     53 O          34.6832   33.9025    3.5140 O.2       8 UNK        -0.5275 
     54 N          32.4750   33.8860    3.0071 N.am      9 UNK        -0.4246 
     55 CA         32.5900   33.8692    1.5492 C.3       9 UNK         0.0261 
     56 CB         31.2241   34.1932    0.9269 C.3       9 UNK        -0.1959 
     57 C          33.1362   32.5399    1.0017 C.2       9 UNK         0.5033 
     58 O          33.9218   32.5677    0.0527 O.2       9 UNK        -0.5390 
     59 N          32.7234   31.4142    1.6000 N.am      10 UNK        -0.4215 
     60 CA         33.1702   30.0708    1.2313 C.3       10 UNK         0.0240 
     61 CB         32.1054   29.3865    0.3595 C.3       10 UNK        -0.1982 
     62 C          33.5022   29.2362    2.4741 C.2       10 UNK         0.4970 
     63 O          34.5971   28.6767    2.5425 O.2       10 UNK        -0.4916 
     64 N          32.5704   29.1679    3.4327 N.am      11 UNK        -0.4279 
     65 CA         32.7493   28.4700    4.7117 C.3       11 UNK         0.1003 
     66 C          33.6094   29.3230    5.6786 C.2       11 UNK         0.5709 
     67 N          34.7765   28.8391    6.0788 N.am      11 UNK        -0.7358 
     68 O          33.2032   30.4053    6.0973 O.2       11 UNK        -0.4999 
     69 C69        31.3904   28.1074    5.3603 C.3       12 UNK        -0.0954 
     70 S70        30.4384   26.8999    4.3869 S.3       12 UNK        -0.2268 
     71 C71        30.4301   25.4746    5.5183 C.3       12 UNK         0.0203 
     72 H72        28.9388   17.0970   -0.8249 H         1 UNK         0.0888 
     73 H73        27.8772   18.4083   -0.3089 H         1 UNK         0.0888 
     74 H74        28.1518   18.1215   -2.0285 H         1 UNK         0.0888 
     75 H75        29.0293   20.1632    0.4635 H         1 UNK         0.3017 
     76 H76        31.8332   20.5022    0.0344 H         1 UNK         0.0873 
     77 H77        31.5640   22.5833    1.4006 H         1 UNK         0.0745 
     78 H78        29.8286   22.4460    1.3102 H         1 UNK         0.0745 
     79 H79        28.9609   20.2147    4.2041 H         1 UNK         0.0705 
     80 H80        28.4042   20.7624    2.6438 H         1 UNK         0.0705 
     81 H81        30.7953   23.0522    4.3246 H         1 UNK         0.1334 
     82 H82        27.7505   25.6558    5.8212 H         1 UNK         0.1417 
     83 H83        26.6543   21.9522    3.9711 H         1 UNK         0.1562 
     84 H84        25.4368   24.7526    6.0363 H         1 UNK         0.0748 
     85 H85        25.0091   23.2533    5.2600 H         1 UNK         0.0748 
     86 H86        25.4811   26.9473    5.1022 H         1 UNK         0.0940 
     87 H87        24.5123   27.4388    3.7441 H         1 UNK         0.0940 
     88 H88        27.4808   26.7276    3.6802 H         1 UNK         0.0703 
     89 H89        27.3584   26.2948    1.5605 H         1 UNK         0.3081 
     90 H90        25.5281   26.2304   -0.8308 H         1 UNK         0.0719 
     91 H91        26.5984   29.0611   -1.3254 H         1 UNK         0.0809 
     92 H92        26.2301   27.8869   -2.5881 H         1 UNK         0.0809 
     93 H93        24.9471   28.5129   -1.5678 H         1 UNK         0.0809 
     94 H94        27.6242   25.5408   -1.0789 H         1 UNK         0.2990 
     95 H95        30.7310   26.8530   -1.1538 H         1 UNK         0.0690 
     96 H96        31.6076   25.4937    0.7378 H         1 UNK         0.0788 
     97 H97        30.0006   25.3970    1.4553 H         1 UNK         0.0788 
     98 H98        30.8308   26.9381    1.3557 H         1 UNK         0.0788 
     99 H99        29.6537   24.1818   -0.5950 H         1 UNK         0.2993 
    100 H100       28.6297   23.1810   -3.2628 H         1 UNK         0.0949 
    101 H101       31.5927   23.0293   -4.0252 H         1 UNK         0.0767 
    102 H102       30.3667   21.8580   -4.5086 H         1 UNK         0.0767 
    103 H103       30.2633   23.5206   -5.0617 H         1 UNK         0.0767 
    104 H104       29.0409   21.7676   -1.6120 H         1 UNK         0.3013 
    105 H105       28.0852   28.8866    1.8152 H         1 UNK         0.3121 
    106 H106       27.1741   31.3737    3.0003 H         1 UNK         0.0774 
    107 H107       27.5468   31.0457    0.5398 H         1 UNK         0.0815 
    108 H108       28.4571   32.3913    1.1970 H         1 UNK         0.0815 
    109 H109       29.2743   30.8752    0.8284 H         1 UNK         0.0815 
    110 H110       27.9106   31.6321    5.0569 H         1 UNK         0.2987 
    111 H111       30.4597   31.0733    6.1205 H         1 UNK         0.0949 
    112 H112       28.4475   31.4969    7.5093 H         1 UNK         0.0806 
    113 H113       29.7353   32.6046    7.9537 H         1 UNK         0.0806 
    114 H114       28.3970   33.1753    6.9667 H         1 UNK         0.0806 
    115 H115       32.3541   32.0636    6.1096 H         1 UNK         0.3010 
    116 H116       34.0436   33.4030    5.8593 H         1 UNK         0.0829 
    117 H117       32.8047   35.2292    7.0170 H         1 UNK         0.0813 
    118 H118       33.8781   35.8623    5.7794 H         1 UNK         0.0813 
    119 H119       32.1518   35.7840    5.4758 H         1 UNK         0.0813 
    120 H120       31.5400   33.9081    3.4053 H         1 UNK         0.3038 
    121 H121       33.2894   34.6568    1.2605 H         1 UNK         0.0769 
    122 H122       31.2774   34.1866   -0.1627 H         1 UNK         0.0811 
    123 H123       30.8736   35.1802    1.2293 H         1 UNK         0.0811 
    124 H124       30.4712   33.4646    1.2233 H         1 UNK         0.0811 
    125 H125       32.0381   31.4729    2.3485 H         1 UNK         0.3204 
    126 H126       34.0906   30.1347    0.6466 H         1 UNK         0.0748 
    127 H127       32.4239   28.3846    0.0701 H         1 UNK         0.0771 
    128 H128       31.1549   29.2948    0.8853 H         1 UNK         0.0771 
    129 H129       31.9239   29.9467   -0.5577 H         1 UNK         0.0771 
    130 H130       31.6996   29.6835    3.3262 H         1 UNK         0.2980 
    131 H131       33.2771   27.5335    4.5185 H         1 UNK         0.0545 
    132 H132       35.3359   29.3793    6.7197 H         1 UNK         0.3459 
    133 H133       35.1195   27.9558    5.7347 H         1 UNK         0.3459 
    134 H134       31.5431   27.7166    6.3678 H         1 UNK         0.0616 
    135 H135       30.7679   28.9928    5.4735 H         1 UNK         0.0616 
    136 H136       31.4244   25.0261    5.5415 H         1 UNK         0.0634 
    137 H137       30.2115   25.8082    6.5338 H         1 UNK         0.0634 
@<TRIPOS>BOND
     1    1    2 1    
     2    1   72 1    
     3    1   73 1    
     4    1   74 1    
     5    2    3 2    
     6    2    4 am   BACKBONE|DICT|INTERRES
     7    4    5 1    
     8    4   75 1    
     9    5    6 1    
    10    5   35 1    
    11    5   76 1    
    12    6    7 1    
    13    6   77 1    
    14    6   78 1    
    15    7    8 1    
    16    8    9 1    
    17    8   79 1    
    18    8   80 1    
    19    9   10 ar   
    20    9   14 ar   
    21   10   11 ar   
    22   10   81 1    
    23   11   12 ar   
    24   11   71 1    
    25   12   13 ar   
    26   12   82 1    
    27   13   14 ar   
    28   13   15 1    
    29   14   83 1    
    30   15   16 1    
    31   15   84 1    
    32   15   85 1    
    33   16   17 1    
    34   17   18 1    
    35   17   86 1    
    36   17   87 1    
    37   18   19 1    
    38   18   37 1    
    39   18   88 1    
    40   19   20 am   BACKBONE|DICT|INTERRES
    41   19   89 1    
    42   20   21 2    
    43   20   22 1    
    44   22   23 1    
    45   22   24 1    
    46   22   90 1    
    47   23   91 1    
    48   23   92 1    
    49   23   93 1    
    50   24   25 am   BACKBONE|DICT|INTERRES
    51   24   94 1    
    52   25   26 2    
    53   25   27 1    
    54   27   28 1    
    55   27   29 1    
    56   27   95 1    
    57   28   96 1    
    58   28   97 1    
    59   28   98 1    
    60   29   30 am   BACKBONE|DICT|INTERRES
    61   29   99 1    
    62   30   31 2    
    63   30   32 1    
    64   32   33 1    
    65   32   34 1    
    66   32  100 1    
    67   33  101 1    
    68   33  102 1    
    69   33  103 1    
    70   34   35 am   BACKBONE|DICT|INTERRES
    71   34  104 1    
    72   35   36 2    
    73   37   38 2    
    74   37   39 am   BACKBONE|DICT|INTERRES
    75   39   40 1    
    76   39  105 1    
    77   40   41 1    
    78   40   42 1    
    79   40  106 1    
    80   41  107 1    
    81   41  108 1    
    82   41  109 1    
    83   42   43 2    
    84   42   44 am   BACKBONE|DICT|INTERRES
    85   44   45 1    
    86   44  110 1    
    87   45   46 1    
    88   45   47 1    
    89   45  111 1    
    90   46  112 1    
    91   46  113 1    
    92   46  114 1    
    93   47   48 2    
    94   47   49 am   BACKBONE|DICT|INTERRES
    95   49   50 1    
    96   49  115 1    
    97   50   51 1    
    98   50   52 1    
    99   50  116 1    
   100   51  117 1    
   101   51  118 1    
   102   51  119 1    
   103   52   53 2    
   104   52   54 am   BACKBONE|DICT|INTERRES
   105   54   55 1    
   106   54  120 1    
   107   55   56 1    
   108   55   57 1    
   109   55  121 1    
   110   56  122 1    
   111   56  123 1    
   112   56  124 1    
   113   57   58 2    
   114   57   59 am   BACKBONE|DICT|INTERRES
   115   59   60 1    
   116   59  125 1    
   117   60   61 1    
   118   60   62 1    
   119   60  126 1    
   120   61  127 1    
   121   61  128 1    
   122   61  129 1    
   123   62   63 2    
   124   62   64 am   BACKBONE|DICT|INTERRES
   125   64   65 1    
   126   64  130 1    
   127   65   66 1    
   128   65   69 1    
   129   65  131 1    
   130   66   67 am   BACKBONE|DICT|INTERRES
   131   66   68 2    
   132   67  132 1    
   133   67  133 1    
   134   69   70 1    
   135   69  134 1    
   136   69  135 1    
   137   70   71 1    
   138   71  136 1    
   139   71  137 1    
@<TRIPOS>SUBSTRUCTURE
     1 UNK         1 GROUP             0       ****    0 ROOT    
