@<TRIPOS>MOLECULE
3R136
137   139    1
SMALL
USER_CHARGES


@<TRIPOS>ATOM
      1 CA         28.8628   17.5056    3.5013 C.3       0 UNK        -0.1979 
      2 C          28.8937   18.6001    2.4445 C.2       0 UNK         0.4864 
      3 O          27.8459   18.9558    1.9037 O.2       0 UNK        -0.5359 
      4 N          30.0877   19.1300    2.1437 N.am      1 UNK        -0.4318 
      5 CA         30.3063   20.2123    1.1747 C.3       1 UNK         0.0824 
      6 C6         31.8081   20.3197    0.7902 C.3       12 UNK        -0.0944 
      7 S7         32.0698   20.9762   -0.8917 S.3       12 UNK        -0.2672 
      8 C8         33.2345   22.3537   -0.6023 C.3       12 UNK         0.0333 
      9 C9         32.5879   23.5555    0.0776 C.ar      12 UNK        -0.0807 
     10 C10        33.1527   24.1045    1.2345 C.ar      12 UNK        -0.0894 
     11 C11        32.5653   25.2127    1.8538 C.ar      12 UNK        -0.0804 
     12 C12        31.3896   25.7517    1.3246 C.ar      12 UNK        -0.0824 
     13 C13        30.8268   25.2281    0.1580 C.ar      12 UNK        -0.0762 
     14 C14        31.4408   24.1407   -0.4686 C.ar      12 UNK        -0.0782 
     15 C15        29.5392   25.8093   -0.4077 C.3       12 UNK         0.0230 
     16 S16        29.8017   27.4291   -1.1967 S.3       12 UNK        -0.2608 
     17 C17        28.1333   27.7671   -1.8670 C.3       12 UNK        -0.0989 
     18 CA         27.4399   29.0335   -1.2973 C.3       5 UNK         0.0716 
     19 N          27.3341   28.9961    0.1675 N.am      5 UNK        -0.4135 
     20 C          26.4392   29.6775    0.8964 C.2       4 UNK         0.5031 
     21 O          25.6010   30.4350    0.4051 O.2       4 UNK        -0.5229 
     22 CA         26.4741   29.4474    2.4218 C.3       4 UNK         0.0329 
     23 CB         25.4014   30.2592    3.1714 C.3       4 UNK        -0.2001 
     24 N          26.3062   28.0272    2.7417 N.am      4 UNK        -0.4303 
     25 C          27.2891   27.1215    2.7196 C.2       3 UNK         0.5044 
     26 O          28.4713   27.4115    2.5009 O.2       3 UNK        -0.5152 
     27 CA         26.8827   25.6572    2.9282 C.3       3 UNK         0.0319 
     28 CB         26.0664   25.1369    1.7259 C.3       3 UNK        -0.2001 
     29 N          28.1037   24.8781    3.1049 N.am      3 UNK        -0.4354 
     30 C          28.2037   23.6014    3.4865 C.2       2 UNK         0.4964 
     31 O          27.2441   22.8696    3.7385 O.2       2 UNK        -0.5047 
     32 CA         29.6356   23.0741    3.6764 C.3       2 UNK         0.0288 
     33 CB         29.9352   22.8909    5.1732 C.3       2 UNK        -0.2113 
     34 N          29.9157   21.8156    2.9848 N.am      2 UNK        -0.4145 
     35 C          29.7522   21.5641    1.6764 C.2       1 UNK         0.5006 
     36 O          29.2088   22.3308    0.8804 O.2       1 UNK        -0.5103 
     37 C          28.0529   30.3427   -1.8503 C.2       5 UNK         0.5055 
     38 O          27.9642   30.5846   -3.0553 O.2       5 UNK        -0.5220 
     39 N          28.6420   31.1674   -0.9786 N.am      6 UNK        -0.4450 
     40 CA         29.2270   32.4733   -1.2583 C.3       6 UNK         0.0367 
     41 CB         30.6197   32.3038   -1.8968 C.3       6 UNK        -0.1929 
     42 C          29.3197   33.2323    0.0708 C.2       6 UNK         0.5070 
     43 O          29.1643   32.6246    1.1332 O.2       6 UNK        -0.5237 
     44 N          29.6246   34.5342    0.0068 N.am      7 UNK        -0.4739 
     45 CA         29.8216   35.3943    1.1834 C.3       7 UNK         0.0276 
     46 CB         29.9629   36.8550    0.7266 C.3       7 UNK        -0.1927 
     47 C          31.0216   34.9857    2.0618 C.2       7 UNK         0.5013 
     48 O          31.0115   35.2544    3.2631 O.2       7 UNK        -0.5193 
     49 N          32.0168   34.3316    1.4487 N.am      8 UNK        -0.4253 
     50 CA         33.2031   33.7775    2.1044 C.3       8 UNK         0.0242 
     51 CB         34.4085   33.9691    1.1659 C.3       8 UNK        -0.2000 
     52 C          33.0422   32.2930    2.4946 C.2       8 UNK         0.4948 
     53 O          34.0155   31.7000    2.9636 O.2       8 UNK        -0.5275 
     54 N          31.8563   31.7051    2.2744 N.am      9 UNK        -0.4246 
     55 CA         31.5435   30.3059    2.5740 C.3       9 UNK         0.0261 
     56 CB         30.6151   29.7634    1.4735 C.3       9 UNK        -0.1959 
     57 C          30.9664   30.1595    3.9978 C.2       9 UNK         0.5033 
     58 O          31.3828   30.8930    4.8970 O.2       9 UNK        -0.5390 
     59 N          30.0408   29.2037    4.1900 N.am      10 UNK        -0.4215 
     60 CA         29.4161   28.8246    5.4665 C.3       10 UNK         0.0240 
     61 CB         28.5261   29.9619    6.0125 C.3       10 UNK        -0.1982 
     62 C          30.4409   28.3007    6.4925 C.2       10 UNK         0.4970 
     63 O          30.3959   28.6732    7.6668 O.2       10 UNK        -0.4916 
     64 N          31.3555   27.4506    6.0103 N.am      11 UNK        -0.4279 
     65 CA         32.3886   26.7627    6.7946 C.3       11 UNK         0.1003 
     66 C          31.8246   25.7667    7.8494 C.2       11 UNK         0.5709 
     67 N          32.6250   25.4042    8.8428 N.am      11 UNK        -0.7358 
     68 O          30.6869   25.3071    7.7716 O.2       11 UNK        -0.4999 
     69 C69        33.4532   26.1085    5.8698 C.3       12 UNK        -0.0954 
     70 S70        32.7570   24.9855    4.6059 S.3       12 UNK        -0.2268 
     71 C71        33.2125   25.8496    3.0748 C.3       12 UNK         0.0203 
     72 H72        28.4922   16.5768    3.0682 H         1 UNK         0.0888 
     73 H73        29.8505   17.3143    3.9203 H         1 UNK         0.0888 
     74 H74        28.1984   17.7898    4.3174 H         1 UNK         0.0888 
     75 H75        30.9134   18.7789    2.6085 H         1 UNK         0.3017 
     76 H76        29.7407   19.9466    0.2782 H         1 UNK         0.0873 
     77 H77        32.2668   19.3294    0.7970 H         1 UNK         0.0745 
     78 H78        32.3692   20.9054    1.5216 H         1 UNK         0.0745 
     79 H79        34.0837   21.9854   -0.0243 H         1 UNK         0.0705 
     80 H80        33.6362   22.6764   -1.5637 H         1 UNK         0.0705 
     81 H81        34.0550   23.6777    1.6510 H         1 UNK         0.1334 
     82 H82        30.9154   26.5850    1.8168 H         1 UNK         0.1417 
     83 H83        31.0059   23.7234   -1.3664 H         1 UNK         0.1562 
     84 H84        28.8096   25.9096    0.3923 H         1 UNK         0.0748 
     85 H85        29.1020   25.1219   -1.1336 H         1 UNK         0.0748 
     86 H86        28.2099   27.8300   -2.9544 H         1 UNK         0.0940 
     87 H87        27.4924   26.9038   -1.6817 H         1 UNK         0.0940 
     88 H88        26.4181   29.0195   -1.6833 H         1 UNK         0.0703 
     89 H89        27.9841   28.3864    0.6494 H         1 UNK         0.3081 
     90 H90        27.4480   29.7876    2.7788 H         1 UNK         0.0719 
     91 H91        25.5274   31.3282    2.9946 H         1 UNK         0.0809 
     92 H92        24.3935   29.9914    2.8521 H         1 UNK         0.0809 
     93 H93        25.4642   30.1015    4.2482 H         1 UNK         0.0809 
     94 H94        25.3590   27.7127    2.8984 H         1 UNK         0.2990 
     95 H95        26.2876   25.5896    3.8408 H         1 UNK         0.0690 
     96 H96        25.7427   24.1073    1.8768 H         1 UNK         0.0788 
     97 H97        26.6396   25.1680    0.7996 H         1 UNK         0.0788 
     98 H98        25.1642   25.7292    1.5700 H         1 UNK         0.0788 
     99 H99        28.9420   25.4207    2.9390 H         1 UNK         0.2993 
    100 H100       30.3330   23.8093    3.2724 H         1 UNK         0.0949 
    101 H101       30.9710   22.5963    5.3425 H         1 UNK         0.0767 
    102 H102       29.7730   23.8222    5.7169 H         1 UNK         0.0767 
    103 H103       29.2922   22.1341    5.6242 H         1 UNK         0.0767 
    104 H104       30.3305   21.0888    3.5476 H         1 UNK         0.3013 
    105 H105       28.6204   30.9458    0.0082 H         1 UNK         0.3121 
    106 H106       28.5686   33.0263   -1.9313 H         1 UNK         0.0774 
    107 H107       30.5649   31.7384   -2.8271 H         1 UNK         0.0815 
    108 H108       31.0653   33.2693   -2.1379 H         1 UNK         0.0815 
    109 H109       31.3085   31.7816   -1.2317 H         1 UNK         0.0815 
    110 H110       29.7375   34.9684   -0.8988 H         1 UNK         0.2987 
    111 H111       28.9277   35.3151    1.8063 H         1 UNK         0.0949 
    112 H112       29.0808   37.1874    0.1789 H         1 UNK         0.0806 
    113 H113       30.0795   37.5214    1.5826 H         1 UNK         0.0806 
    114 H114       30.8324   36.9960    0.0835 H         1 UNK         0.0806 
    115 H115       31.9295   34.1646    0.4569 H         1 UNK         0.3010 
    116 H116       33.4015   34.3287    3.0260 H         1 UNK         0.0829 
    117 H117       34.2905   33.4097    0.2372 H         1 UNK         0.0813 
    118 H118       35.3319   33.6283    1.6362 H         1 UNK         0.0813 
    119 H119       34.5491   35.0195    0.9104 H         1 UNK         0.0813 
    120 H120       31.0802   32.2701    1.9504 H         1 UNK         0.3038 
    121 H121       32.4635   29.7185    2.5432 H         1 UNK         0.0769 
    122 H122       30.9784   30.0251    0.4799 H         1 UNK         0.0811 
    123 H123       29.6017   30.1456    1.5764 H         1 UNK         0.0811 
    124 H124       30.5606   28.6797    1.5024 H         1 UNK         0.0811 
    125 H125       29.7322   28.6553    3.3922 H         1 UNK         0.3204 
    126 H126       28.7605   27.9810    5.2481 H         1 UNK         0.0748 
    127 H127       29.1141   30.8269    6.3201 H         1 UNK         0.0771 
    128 H128       27.8063   30.2956    5.2660 H         1 UNK         0.0771 
    129 H129       27.9595   29.6293    6.8829 H         1 UNK         0.0771 
    130 H130       31.2974   27.1761    5.0427 H         1 UNK         0.2980 
    131 H131       32.8971   27.5418    7.3656 H         1 UNK         0.0545 
    132 H132       33.5617   25.7683    8.9196 H         1 UNK         0.3459 
    133 H133       32.2825   24.7545    9.5326 H         1 UNK         0.3459 
    134 H134       34.1875   25.5521    6.4544 H         1 UNK         0.0616 
    135 H135       34.0229   26.8944    5.3720 H         1 UNK         0.0616 
    136 H136       32.9202   26.8984    3.1488 H         1 UNK         0.0634 
    137 H137       34.2980   25.8395    2.9669 H         1 UNK         0.0634 
@<TRIPOS>BOND
     1    1    2 1    
     2    1   72 1    
     3    1   73 1    
     4    1   74 1    
     5    2    3 2    
     6    2    4 am   BACKBONE|DICT|INTERRES
     7    4    5 1    
     8    4   75 1    
     9    5    6 1    
    10    5   35 1    
    11    5   76 1    
    12    6    7 1    
    13    6   77 1    
    14    6   78 1    
    15    7    8 1    
    16    8    9 1    
    17    8   79 1    
    18    8   80 1    
    19    9   10 ar   
    20    9   14 ar   
    21   10   11 ar   
    22   10   81 1    
    23   11   12 ar   
    24   11   71 1    
    25   12   13 ar   
    26   12   82 1    
    27   13   14 ar   
    28   13   15 1    
    29   14   83 1    
    30   15   16 1    
    31   15   84 1    
    32   15   85 1    
    33   16   17 1    
    34   17   18 1    
    35   17   86 1    
    36   17   87 1    
    37   18   19 1    
    38   18   37 1    
    39   18   88 1    
    40   19   20 am   BACKBONE|DICT|INTERRES
    41   19   89 1    
    42   20   21 2    
    43   20   22 1    
    44   22   23 1    
    45   22   24 1    
    46   22   90 1    
    47   23   91 1    
    48   23   92 1    
    49   23   93 1    
    50   24   25 am   BACKBONE|DICT|INTERRES
    51   24   94 1    
    52   25   26 2    
    53   25   27 1    
    54   27   28 1    
    55   27   29 1    
    56   27   95 1    
    57   28   96 1    
    58   28   97 1    
    59   28   98 1    
    60   29   30 am   BACKBONE|DICT|INTERRES
    61   29   99 1    
    62   30   31 2    
    63   30   32 1    
    64   32   33 1    
    65   32   34 1    
    66   32  100 1    
    67   33  101 1    
    68   33  102 1    
    69   33  103 1    
    70   34   35 am   BACKBONE|DICT|INTERRES
    71   34  104 1    
    72   35   36 2    
    73   37   38 2    
    74   37   39 am   BACKBONE|DICT|INTERRES
    75   39   40 1    
    76   39  105 1    
    77   40   41 1    
    78   40   42 1    
    79   40  106 1    
    80   41  107 1    
    81   41  108 1    
    82   41  109 1    
    83   42   43 2    
    84   42   44 am   BACKBONE|DICT|INTERRES
    85   44   45 1    
    86   44  110 1    
    87   45   46 1    
    88   45   47 1    
    89   45  111 1    
    90   46  112 1    
    91   46  113 1    
    92   46  114 1    
    93   47   48 2    
    94   47   49 am   BACKBONE|DICT|INTERRES
    95   49   50 1    
    96   49  115 1    
    97   50   51 1    
    98   50   52 1    
    99   50  116 1    
   100   51  117 1    
   101   51  118 1    
   102   51  119 1    
   103   52   53 2    
   104   52   54 am   BACKBONE|DICT|INTERRES
   105   54   55 1    
   106   54  120 1    
   107   55   56 1    
   108   55   57 1    
   109   55  121 1    
   110   56  122 1    
   111   56  123 1    
   112   56  124 1    
   113   57   58 2    
   114   57   59 am   BACKBONE|DICT|INTERRES
   115   59   60 1    
   116   59  125 1    
   117   60   61 1    
   118   60   62 1    
   119   60  126 1    
   120   61  127 1    
   121   61  128 1    
   122   61  129 1    
   123   62   63 2    
   124   62   64 am   BACKBONE|DICT|INTERRES
   125   64   65 1    
   126   64  130 1    
   127   65   66 1    
   128   65   69 1    
   129   65  131 1    
   130   66   67 am   BACKBONE|DICT|INTERRES
   131   66   68 2    
   132   67  132 1    
   133   67  133 1    
   134   69   70 1    
   135   69  134 1    
   136   69  135 1    
   137   70   71 1    
   138   71  136 1    
   139   71  137 1    
@<TRIPOS>SUBSTRUCTURE
     1 UNK         1 GROUP             0       ****    0 ROOT    
