@<TRIPOS>MOLECULE
3R136
137   139    1
SMALL
USER_CHARGES


@<TRIPOS>ATOM
      1 CA         26.2095   27.9020    2.0761 C.3       0 UNK        -0.1979 
      2 C          26.4780   26.5738    2.7652 C.2       0 UNK         0.4864 
      3 O          25.6947   26.1781    3.6283 O.2       0 UNK        -0.5359 
      4 N          27.5719   25.8839    2.4046 N.am      1 UNK        -0.4318 
      5 CA         27.9838   24.6028    3.0000 C.3       1 UNK         0.0824 
      6 C6         29.4408   24.2204    2.6243 C.3       12 UNK        -0.0944 
      7 S7         29.6817   23.7776    0.8681 S.3       12 UNK        -0.2672 
      8 C8         31.4757   23.4810    0.8047 C.3       12 UNK         0.0333 
      9 C9         32.2124   24.7080    0.2940 C.ar      12 UNK        -0.0807 
     10 C10        32.9655   25.5074    1.1600 C.ar      12 UNK        -0.0894 
     11 C11        33.6254   26.6429    0.6776 C.ar      12 UNK        -0.0804 
     12 C12        33.5189   26.9792   -0.6749 C.ar      12 UNK        -0.0824 
     13 C13        32.7510   26.1988   -1.5431 C.ar      12 UNK        -0.0762 
     14 C14        32.1222   25.0497   -1.0584 C.ar      12 UNK        -0.0782 
     15 C15        32.5340   26.6433   -2.9837 C.3       12 UNK         0.0230 
     16 S16        30.8011   27.1331   -3.3023 S.3       12 UNK        -0.2608 
     17 C17        30.3616   27.9969   -1.7525 C.3       12 UNK        -0.0989 
     18 CA         29.0933   28.8864   -1.8612 C.3       5 UNK         0.0716 
     19 N          27.9182   28.1710   -2.3733 N.am      5 UNK        -0.4135 
     20 C          27.2799   27.1460   -1.7921 C.2       4 UNK         0.5031 
     21 O          27.5904   26.6488   -0.7057 O.2       4 UNK        -0.5229 
     22 CA         26.1304   26.5340   -2.6119 C.3       4 UNK         0.0329 
     23 CB         26.6744   25.4443   -3.5503 C.3       4 UNK        -0.2001 
     24 N          25.0989   25.9440   -1.7601 N.am      4 UNK        -0.4303 
     25 C          24.2279   26.6240   -1.0066 C.2       3 UNK         0.5044 
     26 O          24.1360   27.8519   -1.0132 O.2       3 UNK        -0.5152 
     27 CA         23.3101   25.8107   -0.0707 C.3       3 UNK         0.0319 
     28 CB         22.0247   25.3652   -0.7952 C.3       3 UNK        -0.2001 
     29 N          23.9770   24.6872    0.6085 N.am      3 UNK        -0.4354 
     30 C          24.4584   23.5488    0.0842 C.2       2 UNK         0.4964 
     31 O          24.3606   23.2410   -1.1044 O.2       2 UNK        -0.5047 
     32 CA         25.2886   22.6816    1.0378 C.3       2 UNK         0.0288 
     33 CB         25.8458   21.4019    0.3839 C.3       2 UNK        -0.2113 
     34 N          26.3839   23.5185    1.5094 N.am      2 UNK        -0.4145 
     35 C          26.9759   23.4678    2.7068 C.2       1 UNK         0.5006 
     36 O          26.7353   22.6156    3.5639 O.2       1 UNK        -0.5103 
     37 C          28.7531   29.6464   -0.5575 C.2       5 UNK         0.5055 
     38 O          27.7737   30.3953   -0.5425 O.2       5 UNK        -0.5220 
     39 N          29.5551   29.4600    0.4981 N.am      6 UNK        -0.4450 
     40 CA         29.3465   29.9890    1.8417 C.3       6 UNK         0.0367 
     41 CB         30.3192   31.1521    2.1011 C.3       6 UNK        -0.1929 
     42 C          29.5569   28.8439    2.8397 C.2       6 UNK         0.5070 
     43 O          30.1132   27.8028    2.4806 O.2       6 UNK        -0.5237 
     44 N          29.0649   29.0385    4.0672 N.am      7 UNK        -0.4739 
     45 CA         29.0411   28.0482    5.1454 C.3       7 UNK         0.0276 
     46 CB         28.0312   28.5090    6.2124 C.3       7 UNK        -0.1927 
     47 C          30.4297   27.7492    5.7426 C.2       7 UNK         0.5013 
     48 O          30.7087   28.1588    6.8716 O.2       7 UNK        -0.5193 
     49 N          31.2617   27.0314    4.9749 N.am      8 UNK        -0.4253 
     50 CA         32.5536   26.4377    5.3448 C.3       8 UNK         0.0242 
     51 CB         32.3380   25.2273    6.2788 C.3       8 UNK        -0.2000 
     52 C          33.5481   27.4680    5.9056 C.2       8 UNK         0.4948 
     53 O          34.2361   28.1232    5.1261 O.2       8 UNK        -0.5275 
     54 N          33.5807   27.6342    7.2359 N.am      9 UNK        -0.4246 
     55 CA         34.3576   28.6607    7.9401 C.3       9 UNK         0.0261 
     56 CB         34.1698   28.4906    9.4558 C.3       9 UNK        -0.1959 
     57 C          34.0116   30.1002    7.5114 C.2       9 UNK         0.5033 
     58 O          34.8837   30.9693    7.5645 O.2       9 UNK        -0.5390 
     59 N          32.7739   30.3190    7.0399 N.am      10 UNK        -0.4215 
     60 CA         32.3125   31.5780    6.4479 C.3       10 UNK         0.0240 
     61 CB         30.7938   31.5144    6.2317 C.3       10 UNK        -0.1982 
     62 C          33.0315   31.9689    5.1397 C.2       10 UNK         0.4970 
     63 O          32.9469   33.1358    4.7546 O.2       10 UNK        -0.4916 
     64 N          33.7387   31.0285    4.4927 N.am      11 UNK        -0.4279 
     65 CA         34.6619   31.3178    3.3830 C.3       11 UNK         0.1003 
     66 C          35.9337   32.1124    3.8097 C.2       11 UNK         0.5709 
     67 N          36.2751   32.2020    5.0918 N.am      11 UNK        -0.7358 
     68 O          36.6226   32.6658    2.9558 O.2       11 UNK        -0.4999 
     69 C69        35.0714   30.0395    2.6051 C.3       12 UNK        -0.0954 
     70 S70        33.6646   29.1278    1.8914 S.3       12 UNK        -0.2268 
     71 C71        34.4568   27.5157    1.6042 C.3       12 UNK         0.0203 
     72 H72        26.2235   28.7109    2.8056 H         1 UNK         0.0888 
     73 H73        26.9509   28.1226    1.3115 H         1 UNK         0.0888 
     74 H74        25.2292   27.8907    1.6024 H         1 UNK         0.0888 
     75 H75        28.1696   26.2376    1.6662 H         1 UNK         0.3017 
     76 H76        27.9657   24.7475    4.0824 H         1 UNK         0.0873 
     77 H77        30.1144   25.0435    2.8675 H         1 UNK         0.0745 
     78 H78        29.7687   23.3778    3.2359 H         1 UNK         0.0745 
     79 H79        31.8451   23.1777    1.7856 H         1 UNK         0.0705 
     80 H80        31.6689   22.6428    0.1337 H         1 UNK         0.0705 
     81 H81        33.0349   25.2464    2.2061 H         1 UNK         0.1334 
     82 H82        34.0080   27.8721   -1.0402 H         1 UNK         0.1417 
     83 H83        31.5159   24.4501   -1.7241 H         1 UNK         0.1562 
     84 H84        32.8085   25.8342   -3.6618 H         1 UNK         0.0748 
     85 H85        33.1849   27.4840   -3.2289 H         1 UNK         0.0748 
     86 H86        31.2189   28.6071   -1.4614 H         1 UNK         0.0940 
     87 H87        30.2306   27.2408   -0.9751 H         1 UNK         0.0940 
     88 H88        29.3091   29.6618   -2.5979 H         1 UNK         0.0703 
     89 H89        27.5715   28.5056   -3.2604 H         1 UNK         0.3081 
     90 H90        25.6672   27.3189   -3.2136 H         1 UNK         0.0719 
     91 H91        27.1366   24.6287   -2.9921 H         1 UNK         0.0809 
     92 H92        25.8833   25.0212   -4.1698 H         1 UNK         0.0809 
     93 H93        27.4327   25.8473   -4.2233 H         1 UNK         0.0809 
     94 H94        25.0769   24.9313   -1.6939 H         1 UNK         0.2990 
     95 H95        23.0093   26.4902    0.7286 H         1 UNK         0.0690 
     96 H96        21.3507   24.8387   -0.1195 H         1 UNK         0.0788 
     97 H97        22.2348   24.7082   -1.6396 H         1 UNK         0.0788 
     98 H98        21.4831   26.2274   -1.1865 H         1 UNK         0.0788 
     99 H99        24.1544   24.8430    1.5924 H         1 UNK         0.2993 
    100 H100       24.6461   22.4023    1.8759 H         1 UNK         0.0949 
    101 H101       25.0389   20.7746    0.0029 H         1 UNK         0.0767 
    102 H102       26.5075   21.6323   -0.4522 H         1 UNK         0.0767 
    103 H103       26.4104   20.8056    1.1009 H         1 UNK         0.0767 
    104 H104       26.6733   24.2582    0.8818 H         1 UNK         0.3013 
    105 H105       30.2789   28.7534    0.4518 H         1 UNK         0.3121 
    106 H106       28.3204   30.3470    1.9500 H         1 UNK         0.0774 
    107 H107       30.1608   31.5891    3.0873 H         1 UNK         0.0815 
    108 H108       30.1830   31.9497    1.3708 H         1 UNK         0.0815 
    109 H109       31.3588   30.8317    2.0518 H         1 UNK         0.0815 
    110 H110       28.6381   29.9291    4.2782 H         1 UNK         0.2987 
    111 H111       28.6711   27.1066    4.7375 H         1 UNK         0.0949 
    112 H112       28.3075   29.4715    6.6444 H         1 UNK         0.0806 
    113 H113       27.0281   28.6013    5.7953 H         1 UNK         0.0806 
    114 H114       27.9728   27.7900    7.0308 H         1 UNK         0.0806 
    115 H115       30.9796   26.9121    4.0052 H         1 UNK         0.3010 
    116 H116       32.9968   26.0636    4.4217 H         1 UNK         0.0829 
    117 H117       31.7937   25.4917    7.1859 H         1 UNK         0.0813 
    118 H118       31.7702   24.4450    5.7748 H         1 UNK         0.0813 
    119 H119       33.2901   24.7874    6.5794 H         1 UNK         0.0813 
    120 H120       32.9386   27.0891    7.7935 H         1 UNK         0.3038 
    121 H121       35.4103   28.4955    7.7018 H         1 UNK         0.0769 
    122 H122       34.7554   29.2283   10.0064 H         1 UNK         0.0811 
    123 H123       33.1269   28.6166    9.7498 H         1 UNK         0.0811 
    124 H124       34.4974   27.5057    9.7891 H         1 UNK         0.0811 
    125 H125       32.1162   29.5429    7.0359 H         1 UNK         0.3204 
    126 H126       32.5169   32.3698    7.1715 H         1 UNK         0.0748 
    127 H127       30.5356   30.7643    5.4880 H         1 UNK         0.0771 
    128 H128       30.2674   31.2713    7.1549 H         1 UNK         0.0771 
    129 H129       30.4072   32.4714    5.8784 H         1 UNK         0.0771 
    130 H130       33.7702   30.0782    4.8470 H         1 UNK         0.2980 
    131 H131       34.1273   31.9625    2.6827 H         1 UNK         0.0545 
    132 H132       37.0993   32.7240    5.3429 H         1 UNK         0.3459 
    133 H133       35.7248   31.7545    5.8154 H         1 UNK         0.3459 
    134 H134       35.7388   30.2932    1.7793 H         1 UNK         0.0616 
    135 H135       35.6355   29.3691    3.2556 H         1 UNK         0.0616 
    136 H136       35.4411   27.6687    1.1591 H         1 UNK         0.0634 
    137 H137       34.6217   27.0225    2.5631 H         1 UNK         0.0634 
@<TRIPOS>BOND
     1    1    2 1    
     2    1   72 1    
     3    1   73 1    
     4    1   74 1    
     5    2    3 2    
     6    2    4 am   BACKBONE|DICT|INTERRES
     7    4    5 1    
     8    4   75 1    
     9    5    6 1    
    10    5   35 1    
    11    5   76 1    
    12    6    7 1    
    13    6   77 1    
    14    6   78 1    
    15    7    8 1    
    16    8    9 1    
    17    8   79 1    
    18    8   80 1    
    19    9   10 ar   
    20    9   14 ar   
    21   10   11 ar   
    22   10   81 1    
    23   11   12 ar   
    24   11   71 1    
    25   12   13 ar   
    26   12   82 1    
    27   13   14 ar   
    28   13   15 1    
    29   14   83 1    
    30   15   16 1    
    31   15   84 1    
    32   15   85 1    
    33   16   17 1    
    34   17   18 1    
    35   17   86 1    
    36   17   87 1    
    37   18   19 1    
    38   18   37 1    
    39   18   88 1    
    40   19   20 am   BACKBONE|DICT|INTERRES
    41   19   89 1    
    42   20   21 2    
    43   20   22 1    
    44   22   23 1    
    45   22   24 1    
    46   22   90 1    
    47   23   91 1    
    48   23   92 1    
    49   23   93 1    
    50   24   25 am   BACKBONE|DICT|INTERRES
    51   24   94 1    
    52   25   26 2    
    53   25   27 1    
    54   27   28 1    
    55   27   29 1    
    56   27   95 1    
    57   28   96 1    
    58   28   97 1    
    59   28   98 1    
    60   29   30 am   BACKBONE|DICT|INTERRES
    61   29   99 1    
    62   30   31 2    
    63   30   32 1    
    64   32   33 1    
    65   32   34 1    
    66   32  100 1    
    67   33  101 1    
    68   33  102 1    
    69   33  103 1    
    70   34   35 am   BACKBONE|DICT|INTERRES
    71   34  104 1    
    72   35   36 2    
    73   37   38 2    
    74   37   39 am   BACKBONE|DICT|INTERRES
    75   39   40 1    
    76   39  105 1    
    77   40   41 1    
    78   40   42 1    
    79   40  106 1    
    80   41  107 1    
    81   41  108 1    
    82   41  109 1    
    83   42   43 2    
    84   42   44 am   BACKBONE|DICT|INTERRES
    85   44   45 1    
    86   44  110 1    
    87   45   46 1    
    88   45   47 1    
    89   45  111 1    
    90   46  112 1    
    91   46  113 1    
    92   46  114 1    
    93   47   48 2    
    94   47   49 am   BACKBONE|DICT|INTERRES
    95   49   50 1    
    96   49  115 1    
    97   50   51 1    
    98   50   52 1    
    99   50  116 1    
   100   51  117 1    
   101   51  118 1    
   102   51  119 1    
   103   52   53 2    
   104   52   54 am   BACKBONE|DICT|INTERRES
   105   54   55 1    
   106   54  120 1    
   107   55   56 1    
   108   55   57 1    
   109   55  121 1    
   110   56  122 1    
   111   56  123 1    
   112   56  124 1    
   113   57   58 2    
   114   57   59 am   BACKBONE|DICT|INTERRES
   115   59   60 1    
   116   59  125 1    
   117   60   61 1    
   118   60   62 1    
   119   60  126 1    
   120   61  127 1    
   121   61  128 1    
   122   61  129 1    
   123   62   63 2    
   124   62   64 am   BACKBONE|DICT|INTERRES
   125   64   65 1    
   126   64  130 1    
   127   65   66 1    
   128   65   69 1    
   129   65  131 1    
   130   66   67 am   BACKBONE|DICT|INTERRES
   131   66   68 2    
   132   67  132 1    
   133   67  133 1    
   134   69   70 1    
   135   69  134 1    
   136   69  135 1    
   137   70   71 1    
   138   71  136 1    
   139   71  137 1    
@<TRIPOS>SUBSTRUCTURE
     1 UNK         1 GROUP             0       ****    0 ROOT    
