@<TRIPOS>MOLECULE
3R136
137   139    1
SMALL
USER_CHARGES


@<TRIPOS>ATOM
      1 CA         28.0321   17.7954   -0.1063 C.3       0 UNK        -0.1979 
      2 C          28.4462   19.2022   -0.5123 C.2       0 UNK         0.4864 
      3 O          28.6083   19.4722   -1.7036 O.2       0 UNK        -0.5359 
      4 N          28.6266   20.0962    0.4684 N.am      1 UNK        -0.4318 
      5 CA         28.9835   21.5046    0.2705 C.3       1 UNK         0.0824 
      6 C6         29.4062   22.1806    1.5981 C.3       12 UNK        -0.0944 
      7 S7         30.8750   21.3893    2.3417 S.3       12 UNK        -0.2672 
      8 C8         32.0882   22.7549    2.3510 C.3       12 UNK         0.0333 
      9 C9         32.0337   23.6524    3.5902 C.ar      12 UNK        -0.0807 
     10 C10        33.2223   24.2181    4.0622 C.ar      12 UNK        -0.0894 
     11 C11        33.2210   25.0632    5.1751 C.ar      12 UNK        -0.0804 
     12 C12        32.0189   25.3299    5.8327 C.ar      12 UNK        -0.0824 
     13 C13        30.8150   24.7772    5.3790 C.ar      12 UNK        -0.0762 
     14 C14        30.8342   23.9441    4.2556 C.ar      12 UNK        -0.0782 
     15 C15        29.4947   25.0053    6.1166 C.3       12 UNK         0.0230 
     16 S16        29.3845   26.6083    6.9851 S.3       12 UNK        -0.2608 
     17 C17        28.1489   27.5278    6.0151 C.3       12 UNK        -0.0989 
     18 CA         28.7901   28.3801    4.8885 C.3       5 UNK         0.0716 
     19 N          28.9382   27.6303    3.6381 N.am      5 UNK        -0.4135 
     20 C          29.7246   27.9936    2.6148 C.2       4 UNK         0.5031 
     21 O          30.5619   28.8957    2.6744 O.2       4 UNK        -0.5229 
     22 CA         29.5452   27.2348    1.2848 C.3       4 UNK         0.0329 
     23 CB         30.7002   26.2558    1.0512 C.3       4 UNK        -0.2001 
     24 N          28.2771   26.5126    1.1409 N.am      4 UNK        -0.4303 
     25 C          27.0703   27.0864    1.0369 C.2       3 UNK         0.5044 
     26 O          26.8777   28.2903    1.2086 O.2       3 UNK        -0.5152 
     27 CA         25.8920   26.1501    0.6943 C.3       3 UNK         0.0319 
     28 CB         24.6648   26.9137    0.1538 C.3       3 UNK        -0.2001 
     29 N          26.2627   25.0563   -0.2173 N.am      3 UNK        -0.4354 
     30 C          26.7699   25.1607   -1.4561 C.2       2 UNK         0.4964 
     31 O          27.0019   26.2332   -2.0163 O.2       2 UNK        -0.5047 
     32 CA         27.0987   23.8340   -2.1705 C.3       2 UNK         0.0288 
     33 CB         27.6170   24.0449   -3.6064 C.3       2 UNK        -0.2113 
     34 N          28.0823   23.0387   -1.4278 N.am      2 UNK        -0.4145 
     35 C          27.8065   22.2694   -0.3664 C.2       1 UNK         0.5006 
     36 O          26.6819   22.1816    0.1350 O.2       1 UNK        -0.5103 
     37 C          27.9730   29.6654    4.6484 C.2       5 UNK         0.5055 
     38 O          28.4230   30.7500    5.0202 O.2       5 UNK        -0.5220 
     39 N          26.7904   29.5210    4.0296 N.am      6 UNK        -0.4450 
     40 CA         25.8632   30.6174    3.7299 C.3       6 UNK         0.0367 
     41 CB         24.5275   30.0469    3.2290 C.3       6 UNK        -0.1929 
     42 C          26.4353   31.6233    2.7198 C.2       6 UNK         0.5070 
     43 O          26.1789   32.8217    2.8452 O.2       6 UNK        -0.5237 
     44 N          27.2468   31.1335    1.7736 N.am      7 UNK        -0.4739 
     45 CA         28.0406   31.9219    0.8288 C.3       7 UNK         0.0276 
     46 CB         28.4750   31.0080   -0.3315 C.3       7 UNK        -0.1927 
     47 C          29.2391   32.6162    1.5121 C.2       7 UNK         0.5013 
     48 O          30.3864   32.3736    1.1372 O.2       7 UNK        -0.5193 
     49 N          28.9458   33.4541    2.5177 N.am      8 UNK        -0.4253 
     50 CA         29.8599   34.3099    3.2870 C.3       8 UNK         0.0242 
     51 CB         30.3267   35.4913    2.4100 C.3       8 UNK        -0.2000 
     52 C          31.0426   33.5660    3.9444 C.2       8 UNK         0.4948 
     53 O          32.1176   34.1515    4.0895 O.2       8 UNK        -0.5275 
     54 N          30.8302   32.2949    4.3216 N.am      9 UNK        -0.4246 
     55 CA         31.8202   31.3563    4.8642 C.3       9 UNK         0.0261 
     56 CB         32.1985   31.7412    6.3099 C.3       9 UNK        -0.1959 
     57 C          33.0465   31.1582    3.9482 C.2       9 UNK         0.5033 
     58 O          34.1728   31.0710    4.4419 O.2       9 UNK        -0.5390 
     59 N          32.8119   31.1029    2.6282 N.am      10 UNK        -0.4215 
     60 CA         33.8456   30.9091    1.6076 C.3       10 UNK         0.0240 
     61 CB         33.2508   31.1801    0.2165 C.3       10 UNK        -0.1982 
     62 C          34.5024   29.5188    1.6432 C.2       10 UNK         0.4970 
     63 O          35.6618   29.4031    1.2443 O.2       10 UNK        -0.4916 
     64 N          33.7565   28.5007    2.0967 N.am      11 UNK        -0.4279 
     65 CA         34.1910   27.0958    2.2245 C.3       11 UNK         0.1003 
     66 C          34.4943   26.3615    0.8804 C.2       11 UNK         0.5709 
     67 N          34.1762   26.9271   -0.2781 N.am      11 UNK        -0.7358 
     68 O          34.9831   25.2344    0.8857 O.2       11 UNK        -0.4999 
     69 C69        35.3261   26.9014    3.2725 C.3       12 UNK        -0.0954 
     70 S70        34.7986   27.3335    4.9638 S.3       12 UNK        -0.2268 
     71 C71        34.5150   25.6836    5.6821 C.3       12 UNK         0.0203 
     72 H72        28.7709   17.0725   -0.4513 H         1 UNK         0.0888 
     73 H73        27.9382   17.6941    0.9748 H         1 UNK         0.0888 
     74 H74        27.0718   17.5429   -0.5552 H         1 UNK         0.0888 
     75 H75        28.4751   19.8194    1.4276 H         1 UNK         0.3017 
     76 H76        29.8320   21.5383   -0.4167 H         1 UNK         0.0873 
     77 H77        29.6118   23.2401    1.4367 H         1 UNK         0.0745 
     78 H78        28.5927   22.1376    2.3254 H         1 UNK         0.0745 
     79 H79        33.0779   22.3008    2.2798 H         1 UNK         0.0705 
     80 H80        31.9752   23.3639    1.4534 H         1 UNK         0.0705 
     81 H81        34.1539   24.0078    3.5544 H         1 UNK         0.1334 
     82 H82        32.0323   25.9663    6.7062 H         1 UNK         0.1417 
     83 H83        29.9066   23.5104    3.9144 H         1 UNK         0.1562 
     84 H84        29.3813   24.2115    6.8558 H         1 UNK         0.0748 
     85 H85        28.6548   24.9008    5.4288 H         1 UNK         0.0748 
     86 H86        27.6342   28.1623    6.7408 H         1 UNK         0.0940 
     87 H87        27.3808   26.8545    5.6310 H         1 UNK         0.0940 
     88 H88        29.7831   28.6944    5.2149 H         1 UNK         0.0703 
     89 H89        28.3145   26.8516    3.4959 H         1 UNK         0.3081 
     90 H90        29.5785   27.9788    0.4873 H         1 UNK         0.0719 
     91 H91        30.8064   25.5527    1.8755 H         1 UNK         0.0809 
     92 H92        30.5724   25.6884    0.1292 H         1 UNK         0.0809 
     93 H93        31.6341   26.8035    0.9573 H         1 UNK         0.0809 
     94 H94        28.3370   25.5178    0.9882 H         1 UNK         0.2990 
     95 H95        25.5985   25.6782    1.6330 H         1 UNK         0.0690 
     96 H96        23.8495   26.2331   -0.0912 H         1 UNK         0.0788 
     97 H97        24.9068   27.4847   -0.7433 H         1 UNK         0.0788 
     98 H98        24.2835   27.6174    0.8934 H         1 UNK         0.0788 
     99 H99        26.1368   24.1143    0.1432 H         1 UNK         0.2993 
    100 H100       26.1660   23.2689   -2.2382 H         1 UNK         0.0949 
    101 H101       27.7847   23.0929   -4.1109 H         1 UNK         0.0767 
    102 H102       26.8951   24.6026   -4.2049 H         1 UNK         0.0767 
    103 H103       28.5543   24.6028   -3.6213 H         1 UNK         0.0767 
    104 H104       29.0328   23.0790   -1.7671 H         1 UNK         0.3013 
    105 H105       26.5197   28.6071    3.6990 H         1 UNK         0.3121 
    106 H106       25.6763   31.1569    4.6609 H         1 UNK         0.0774 
    107 H107       24.6476   29.5094    2.2885 H         1 UNK         0.0815 
    108 H108       23.8055   30.8459    3.0552 H         1 UNK         0.0815 
    109 H109       24.0861   29.3647    3.9555 H         1 UNK         0.0815 
    110 H110       27.3398   30.1231    1.7108 H         1 UNK         0.2987 
    111 H111       27.4051   32.7081    0.4155 H         1 UNK         0.0949 
    112 H112       29.1465   30.2209    0.0107 H         1 UNK         0.0806 
    113 H113       27.6175   30.5330   -0.8087 H         1 UNK         0.0806 
    114 H114       29.0029   31.5752   -1.0992 H         1 UNK         0.0806 
    115 H115       27.9626   33.5155    2.7722 H         1 UNK         0.3010 
    116 H116       29.2715   34.7192    4.1094 H         1 UNK         0.0829 
    117 H117       30.9648   35.1548    1.5919 H         1 UNK         0.0813 
    118 H118       29.4800   36.0246    1.9778 H         1 UNK         0.0813 
    119 H119       30.8976   36.2152    2.9930 H         1 UNK         0.0813 
    120 H120       29.8965   31.9107    4.2117 H         1 UNK         0.3038 
    121 H121       31.3265   30.3862    4.9047 H         1 UNK         0.0769 
    122 H122       32.8397   30.9830    6.7613 H         1 UNK         0.0811 
    123 H123       32.7372   32.6885    6.3476 H         1 UNK         0.0811 
    124 H124       31.3133   31.8315    6.9393 H         1 UNK         0.0811 
    125 H125       31.8596   31.2196    2.2966 H         1 UNK         0.3204 
    126 H126       34.6327   31.6439    1.7892 H         1 UNK         0.0748 
    127 H127       33.9919   31.0206   -0.5680 H         1 UNK         0.0771 
    128 H128       32.4017   30.5280    0.0062 H         1 UNK         0.0771 
    129 H129       32.9086   32.2115    0.1292 H         1 UNK         0.0771 
    130 H130       32.8062   28.6979    2.3863 H         1 UNK         0.2980 
    131 H131       33.3135   26.5779    2.6089 H         1 UNK         0.0545 
    132 H132       34.3664   26.4314   -1.1344 H         1 UNK         0.3459 
    133 H133       33.7815   27.8522   -0.3066 H         1 UNK         0.3459 
    134 H134       35.6863   25.8721    3.2810 H         1 UNK         0.0616 
    135 H135       36.1959   27.5080    3.0185 H         1 UNK         0.0616 
    136 H136       35.3646   25.0326    5.4707 H         1 UNK         0.0634 
    137 H137       34.4744   25.7807    6.7680 H         1 UNK         0.0634 
@<TRIPOS>BOND
     1    1    2 1    
     2    1   72 1    
     3    1   73 1    
     4    1   74 1    
     5    2    3 2    
     6    2    4 am   BACKBONE|DICT|INTERRES
     7    4    5 1    
     8    4   75 1    
     9    5    6 1    
    10    5   35 1    
    11    5   76 1    
    12    6    7 1    
    13    6   77 1    
    14    6   78 1    
    15    7    8 1    
    16    8    9 1    
    17    8   79 1    
    18    8   80 1    
    19    9   10 ar   
    20    9   14 ar   
    21   10   11 ar   
    22   10   81 1    
    23   11   12 ar   
    24   11   71 1    
    25   12   13 ar   
    26   12   82 1    
    27   13   14 ar   
    28   13   15 1    
    29   14   83 1    
    30   15   16 1    
    31   15   84 1    
    32   15   85 1    
    33   16   17 1    
    34   17   18 1    
    35   17   86 1    
    36   17   87 1    
    37   18   19 1    
    38   18   37 1    
    39   18   88 1    
    40   19   20 am   BACKBONE|DICT|INTERRES
    41   19   89 1    
    42   20   21 2    
    43   20   22 1    
    44   22   23 1    
    45   22   24 1    
    46   22   90 1    
    47   23   91 1    
    48   23   92 1    
    49   23   93 1    
    50   24   25 am   BACKBONE|DICT|INTERRES
    51   24   94 1    
    52   25   26 2    
    53   25   27 1    
    54   27   28 1    
    55   27   29 1    
    56   27   95 1    
    57   28   96 1    
    58   28   97 1    
    59   28   98 1    
    60   29   30 am   BACKBONE|DICT|INTERRES
    61   29   99 1    
    62   30   31 2    
    63   30   32 1    
    64   32   33 1    
    65   32   34 1    
    66   32  100 1    
    67   33  101 1    
    68   33  102 1    
    69   33  103 1    
    70   34   35 am   BACKBONE|DICT|INTERRES
    71   34  104 1    
    72   35   36 2    
    73   37   38 2    
    74   37   39 am   BACKBONE|DICT|INTERRES
    75   39   40 1    
    76   39  105 1    
    77   40   41 1    
    78   40   42 1    
    79   40  106 1    
    80   41  107 1    
    81   41  108 1    
    82   41  109 1    
    83   42   43 2    
    84   42   44 am   BACKBONE|DICT|INTERRES
    85   44   45 1    
    86   44  110 1    
    87   45   46 1    
    88   45   47 1    
    89   45  111 1    
    90   46  112 1    
    91   46  113 1    
    92   46  114 1    
    93   47   48 2    
    94   47   49 am   BACKBONE|DICT|INTERRES
    95   49   50 1    
    96   49  115 1    
    97   50   51 1    
    98   50   52 1    
    99   50  116 1    
   100   51  117 1    
   101   51  118 1    
   102   51  119 1    
   103   52   53 2    
   104   52   54 am   BACKBONE|DICT|INTERRES
   105   54   55 1    
   106   54  120 1    
   107   55   56 1    
   108   55   57 1    
   109   55  121 1    
   110   56  122 1    
   111   56  123 1    
   112   56  124 1    
   113   57   58 2    
   114   57   59 am   BACKBONE|DICT|INTERRES
   115   59   60 1    
   116   59  125 1    
   117   60   61 1    
   118   60   62 1    
   119   60  126 1    
   120   61  127 1    
   121   61  128 1    
   122   61  129 1    
   123   62   63 2    
   124   62   64 am   BACKBONE|DICT|INTERRES
   125   64   65 1    
   126   64  130 1    
   127   65   66 1    
   128   65   69 1    
   129   65  131 1    
   130   66   67 am   BACKBONE|DICT|INTERRES
   131   66   68 2    
   132   67  132 1    
   133   67  133 1    
   134   69   70 1    
   135   69  134 1    
   136   69  135 1    
   137   70   71 1    
   138   71  136 1    
   139   71  137 1    
@<TRIPOS>SUBSTRUCTURE
     1 UNK         1 GROUP             0       ****    0 ROOT    
