@<TRIPOS>MOLECULE
3R136
137   139    1
SMALL
USER_CHARGES


@<TRIPOS>ATOM
      1 CA         31.7368   22.9914    6.0128 C.3       0 UNK        -0.1979 
      2 C          30.4417   22.2662    5.6779 C.2       0 UNK         0.4864 
      3 O          29.7951   21.7198    6.5722 O.2       0 UNK        -0.5359 
      4 N          30.0592   22.2584    4.3950 N.am      1 UNK        -0.4318 
      5 CA         28.8420   21.6210    3.8773 C.3       1 UNK         0.0824 
      6 C6         29.0410   21.1342    2.4151 C.3       12 UNK        -0.0944 
      7 S7         29.4535   22.4789    1.2467 S.3       12 UNK        -0.2672 
      8 C8         31.1141   22.0116    0.6673 C.3       12 UNK         0.0333 
      9 C9         31.9004   23.2499    0.2664 C.ar      12 UNK        -0.0807 
     10 C10        32.8621   23.7738    1.1319 C.ar      12 UNK        -0.0894 
     11 C11        33.5575   24.9389    0.8003 C.ar      12 UNK        -0.0804 
     12 C12        33.2800   25.5852   -0.4095 C.ar      12 UNK        -0.0824 
     13 C13        32.3061   25.0838   -1.2825 C.ar      12 UNK        -0.0762 
     14 C14        31.6414   23.8957   -0.9466 C.ar      12 UNK        -0.0782 
     15 C15        31.9805   25.8461   -2.5692 C.3       12 UNK         0.0230 
     16 S16        30.1996   25.8384   -2.9787 S.3       12 UNK        -0.2608 
     17 C17        30.0268   27.2705   -4.1049 C.3       12 UNK        -0.0989 
     18 CA         29.3348   28.5025   -3.4548 C.3       5 UNK         0.0716 
     19 N          28.1339   28.1096   -2.7074 N.am      5 UNK        -0.4135 
     20 C          27.1628   28.9146   -2.2525 C.2       4 UNK         0.5031 
     21 O          27.1350   30.1307   -2.4387 O.2       4 UNK        -0.5229 
     22 CA         26.0550   28.2428   -1.4194 C.3       4 UNK         0.0329 
     23 CB         24.9145   27.7579   -2.3286 C.3       4 UNK        -0.2001 
     24 N          26.5824   27.1122   -0.6474 N.am      4 UNK        -0.4303 
     25 C          27.2088   27.2378    0.5297 C.2       3 UNK         0.5044 
     26 O          27.2543   28.2823    1.1798 O.2       3 UNK        -0.5152 
     27 CA         28.0090   26.0156    1.0029 C.3       3 UNK         0.0319 
     28 CB         29.5065   26.2812    0.7900 C.3       3 UNK        -0.2001 
     29 N          27.8088   25.6787    2.4096 N.am      3 UNK        -0.4354 
     30 C          26.6514   25.3526    2.9990 C.2       2 UNK         0.4964 
     31 O          25.5536   25.3606    2.4386 O.2       2 UNK        -0.5047 
     32 CA         26.7909   24.8689    4.4536 C.3       2 UNK         0.0288 
     33 CB         25.4472   24.5453    5.1436 C.3       2 UNK        -0.2113 
     34 N          27.7418   23.7496    4.5094 N.am      2 UNK        -0.4145 
     35 C          27.5804   22.5083    4.0181 C.2       1 UNK         0.5006 
     36 O          26.4971   22.0514    3.6481 O.2       1 UNK        -0.5103 
     37 C          30.3368   29.3373   -2.6270 C.2       5 UNK         0.5055 
     38 O          31.1956   29.9961   -3.2154 O.2       5 UNK        -0.5220 
     39 N          30.2204   29.2984   -1.2953 N.am      6 UNK        -0.4450 
     40 CA         31.0605   30.0226   -0.3479 C.3       6 UNK         0.0367 
     41 CB         32.3079   29.1846   -0.0136 C.3       6 UNK        -0.1929 
     42 C          30.2140   30.3936    0.8769 C.2       6 UNK         0.5070 
     43 O          30.5622   30.0457    2.0050 O.2       6 UNK        -0.5237 
     44 N          29.0847   31.0662    0.6198 N.am      7 UNK        -0.4739 
     45 CA         28.1534   31.5441    1.6434 C.3       7 UNK         0.0276 
     46 CB         26.8639   32.0252    0.9584 C.3       7 UNK        -0.1927 
     47 C          28.7649   32.6661    2.5014 C.2       7 UNK         0.5013 
     48 O          29.5693   33.4520    1.9932 O.2       7 UNK        -0.5193 
     49 N          28.3419   32.7282    3.7736 N.am      8 UNK        -0.4253 
     50 CA         28.8005   33.6621    4.8136 C.3       8 UNK         0.0242 
     51 CB         28.3711   35.1092    4.4864 C.3       8 UNK        -0.2000 
     52 C          30.3095   33.5286    5.1086 C.2       8 UNK         0.4948 
     53 O          31.0140   34.5338    5.2242 O.2       8 UNK        -0.5275 
     54 N          30.7733   32.2800    5.2232 N.am      9 UNK        -0.4246 
     55 CA         32.1521   31.8932    5.5037 C.3       9 UNK         0.0261 
     56 CB         32.9404   31.8088    4.1813 C.3       9 UNK        -0.1959 
     57 C          32.1418   30.5481    6.2429 C.2       9 UNK         0.5033 
     58 O          31.0759   29.9467    6.4119 O.2       9 UNK        -0.5390 
     59 N          33.3333   30.0784    6.6407 N.am      10 UNK        -0.4215 
     60 CA         33.5664   28.8113    7.3516 C.3       10 UNK         0.0240 
     61 CB         35.0638   28.6880    7.6796 C.3       10 UNK        -0.1982 
     62 C          33.0731   27.5475    6.6169 C.2       10 UNK         0.4970 
     63 O          32.8591   26.5218    7.2641 O.2       10 UNK        -0.4916 
     64 N          32.8814   27.6482    5.2964 N.am      11 UNK        -0.4279 
     65 CA         32.2193   26.6450    4.4538 C.3       11 UNK         0.1003 
     66 C          30.7029   26.4437    4.7562 C.2       11 UNK         0.5709 
     67 N          30.0399   27.3295    5.4912 N.am      11 UNK        -0.7358 
     68 O          30.1148   25.4611    4.3081 O.2       11 UNK        -0.4999 
     69 C69        32.4098   26.9603    2.9525 C.3       12 UNK        -0.0954 
     70 S70        34.1477   27.1535    2.4228 S.3       12 UNK        -0.2268 
     71 C71        34.5839   25.5039    1.7758 C.3       12 UNK         0.0203 
     72 H72        32.2742   23.2954    5.1150 H         1 UNK         0.0888 
     73 H73        31.5272   23.8830    6.6037 H         1 UNK         0.0888 
     74 H74        32.3922   22.3433    6.5939 H         1 UNK         0.0888 
     75 H75        30.6031   22.7599    3.7064 H         1 UNK         0.3017 
     76 H76        28.6434   20.7327    4.4810 H         1 UNK         0.0873 
     77 H77        29.8217   20.3729    2.3892 H         1 UNK         0.0745 
     78 H78        28.1426   20.6313    2.0521 H         1 UNK         0.0745 
     79 H79        31.6460   21.4691    1.4502 H         1 UNK         0.0705 
     80 H80        31.0257   21.3293   -0.1793 H         1 UNK         0.0705 
     81 H81        33.0583   23.2817    2.0746 H         1 UNK         0.1334 
     82 H82        33.8081   26.4964   -0.6547 H         1 UNK         0.1417 
     83 H83        30.8883   23.4902   -1.6080 H         1 UNK         0.1562 
     84 H84        32.5415   25.4109   -3.3969 H         1 UNK         0.0748 
     85 H85        32.3099   26.8822   -2.4758 H         1 UNK         0.0748 
     86 H86        30.9959   27.5325   -4.5354 H         1 UNK         0.0940 
     87 H87        29.4242   26.9366   -4.9510 H         1 UNK         0.0940 
     88 H88        29.0032   29.1568   -4.2640 H         1 UNK         0.0703 
     89 H89        28.0715   27.1214   -2.5116 H         1 UNK         0.3081 
     90 H90        25.6486   28.9901   -0.7342 H         1 UNK         0.0719 
     91 H91        25.2534   27.0082   -3.0448 H         1 UNK         0.0809 
     92 H92        24.1025   27.3225   -1.7459 H         1 UNK         0.0809 
     93 H93        24.4933   28.5868   -2.8993 H         1 UNK         0.0809 
     94 H94        26.5533   26.2038   -1.0887 H         1 UNK         0.2990 
     95 H95        27.7205   25.1432    0.4134 H         1 UNK         0.0690 
     96 H96        30.1056   25.4147    1.0653 H         1 UNK         0.0788 
     97 H97        29.8494   27.1292    1.3842 H         1 UNK         0.0788 
     98 H98        29.7277   26.5064   -0.2510 H         1 UNK         0.0788 
     99 H99        28.6510   25.6321    2.9734 H         1 UNK         0.2993 
    100 H100       27.2487   25.6882    5.0097 H         1 UNK         0.0949 
    101 H101       25.6014   24.1747    6.1570 H         1 UNK         0.0767 
    102 H102       24.8277   25.4399    5.2147 H         1 UNK         0.0767 
    103 H103       24.8686   23.8004    4.5972 H         1 UNK         0.0767 
    104 H104       28.6920   24.0226    4.7370 H         1 UNK         0.3013 
    105 H105       29.4631   28.7674   -0.8899 H         1 UNK         0.3121 
    106 H106       31.3894   30.9652   -0.7908 H         1 UNK         0.0774 
    107 H107       32.0334   28.1937    0.3463 H         1 UNK         0.0815 
    108 H108       32.9125   29.6629    0.7581 H         1 UNK         0.0815 
    109 H109       32.9436   29.0553   -0.8892 H         1 UNK         0.0815 
    110 H110       28.8757   31.3188   -0.3354 H         1 UNK         0.2987 
    111 H111       27.9113   30.6994    2.2927 H         1 UNK         0.0949 
    112 H112       27.0534   32.8601    0.2825 H         1 UNK         0.0806 
    113 H113       26.4011   31.2239    0.3818 H         1 UNK         0.0806 
    114 H114       26.1303   32.3595    1.6931 H         1 UNK         0.0806 
    115 H115       27.6688   32.0391    4.0805 H         1 UNK         0.3010 
    116 H116       28.2891   33.3723    5.7329 H         1 UNK         0.0829 
    117 H117       27.2981   35.1741    4.3063 H         1 UNK         0.0813 
    118 H118       28.6008   35.7807    5.3146 H         1 UNK         0.0813 
    119 H119       28.8834   35.4963    3.6051 H         1 UNK         0.0813 
    120 H120       30.1295   31.4993    5.1832 H         1 UNK         0.3038 
    121 H121       32.6111   32.6346    6.1612 H         1 UNK         0.0769 
    122 H122       32.5477   31.0277    3.5292 H         1 UNK         0.0811 
    123 H123       33.9947   31.5921    4.3546 H         1 UNK         0.0811 
    124 H124       32.8945   32.7497    3.6325 H         1 UNK         0.0811 
    125 H125       34.1529   30.6398    6.4567 H         1 UNK         0.3204 
    126 H126       33.0139   28.8639    8.2920 H         1 UNK         0.0748 
    127 H127       35.2684   27.7726    8.2370 H         1 UNK         0.0771 
    128 H128       35.6738   28.6615    6.7756 H         1 UNK         0.0771 
    129 H129       35.4070   29.5204    8.2943 H         1 UNK         0.0771 
    130 H130       33.0978   28.5230    4.8449 H         1 UNK         0.2980 
    131 H131       32.7017   25.6876    4.6549 H         1 UNK         0.0545 
    132 H132       29.0646   27.1841    5.6856 H         1 UNK         0.3459 
    133 H133       30.4975   28.1678    5.8359 H         1 UNK         0.3459 
    134 H134       31.9255   26.1990    2.3449 H         1 UNK         0.0616 
    135 H135       31.8995   27.8934    2.7133 H         1 UNK         0.0616 
    136 H136       35.5514   25.5682    1.2765 H         1 UNK         0.0634 
    137 H137       34.7224   24.8311    2.6236 H         1 UNK         0.0634 
@<TRIPOS>BOND
     1    1    2 1    
     2    1   72 1    
     3    1   73 1    
     4    1   74 1    
     5    2    3 2    
     6    2    4 am   BACKBONE|DICT|INTERRES
     7    4    5 1    
     8    4   75 1    
     9    5    6 1    
    10    5   35 1    
    11    5   76 1    
    12    6    7 1    
    13    6   77 1    
    14    6   78 1    
    15    7    8 1    
    16    8    9 1    
    17    8   79 1    
    18    8   80 1    
    19    9   10 ar   
    20    9   14 ar   
    21   10   11 ar   
    22   10   81 1    
    23   11   12 ar   
    24   11   71 1    
    25   12   13 ar   
    26   12   82 1    
    27   13   14 ar   
    28   13   15 1    
    29   14   83 1    
    30   15   16 1    
    31   15   84 1    
    32   15   85 1    
    33   16   17 1    
    34   17   18 1    
    35   17   86 1    
    36   17   87 1    
    37   18   19 1    
    38   18   37 1    
    39   18   88 1    
    40   19   20 am   BACKBONE|DICT|INTERRES
    41   19   89 1    
    42   20   21 2    
    43   20   22 1    
    44   22   23 1    
    45   22   24 1    
    46   22   90 1    
    47   23   91 1    
    48   23   92 1    
    49   23   93 1    
    50   24   25 am   BACKBONE|DICT|INTERRES
    51   24   94 1    
    52   25   26 2    
    53   25   27 1    
    54   27   28 1    
    55   27   29 1    
    56   27   95 1    
    57   28   96 1    
    58   28   97 1    
    59   28   98 1    
    60   29   30 am   BACKBONE|DICT|INTERRES
    61   29   99 1    
    62   30   31 2    
    63   30   32 1    
    64   32   33 1    
    65   32   34 1    
    66   32  100 1    
    67   33  101 1    
    68   33  102 1    
    69   33  103 1    
    70   34   35 am   BACKBONE|DICT|INTERRES
    71   34  104 1    
    72   35   36 2    
    73   37   38 2    
    74   37   39 am   BACKBONE|DICT|INTERRES
    75   39   40 1    
    76   39  105 1    
    77   40   41 1    
    78   40   42 1    
    79   40  106 1    
    80   41  107 1    
    81   41  108 1    
    82   41  109 1    
    83   42   43 2    
    84   42   44 am   BACKBONE|DICT|INTERRES
    85   44   45 1    
    86   44  110 1    
    87   45   46 1    
    88   45   47 1    
    89   45  111 1    
    90   46  112 1    
    91   46  113 1    
    92   46  114 1    
    93   47   48 2    
    94   47   49 am   BACKBONE|DICT|INTERRES
    95   49   50 1    
    96   49  115 1    
    97   50   51 1    
    98   50   52 1    
    99   50  116 1    
   100   51  117 1    
   101   51  118 1    
   102   51  119 1    
   103   52   53 2    
   104   52   54 am   BACKBONE|DICT|INTERRES
   105   54   55 1    
   106   54  120 1    
   107   55   56 1    
   108   55   57 1    
   109   55  121 1    
   110   56  122 1    
   111   56  123 1    
   112   56  124 1    
   113   57   58 2    
   114   57   59 am   BACKBONE|DICT|INTERRES
   115   59   60 1    
   116   59  125 1    
   117   60   61 1    
   118   60   62 1    
   119   60  126 1    
   120   61  127 1    
   121   61  128 1    
   122   61  129 1    
   123   62   63 2    
   124   62   64 am   BACKBONE|DICT|INTERRES
   125   64   65 1    
   126   64  130 1    
   127   65   66 1    
   128   65   69 1    
   129   65  131 1    
   130   66   67 am   BACKBONE|DICT|INTERRES
   131   66   68 2    
   132   67  132 1    
   133   67  133 1    
   134   69   70 1    
   135   69  134 1    
   136   69  135 1    
   137   70   71 1    
   138   71  136 1    
   139   71  137 1    
@<TRIPOS>SUBSTRUCTURE
     1 UNK         1 GROUP             0       ****    0 ROOT    
