@<TRIPOS>MOLECULE
3R136
137   139    1
SMALL
USER_CHARGES


@<TRIPOS>ATOM
      1 CA         31.6554   21.0758   -3.0037 C.3       0 UNK        -0.1979 
      2 C          30.7099   22.2660   -3.0758 C.2       0 UNK         0.4864 
      3 O          30.2212   22.5949   -4.1581 O.2       0 UNK        -0.5359 
      4 N          30.4544   22.9166   -1.9337 N.am      1 UNK        -0.4318 
      5 CA         29.5347   24.0511   -1.8028 C.3       1 UNK         0.0824 
      6 C6         29.7270   24.8144   -0.4655 C.3       12 UNK        -0.0944 
      7 S7         31.4304   25.4269   -0.2337 S.3       12 UNK        -0.2672 
      8 C8         32.0967   24.2317    0.9710 C.3       12 UNK         0.0333 
      9 C9         31.7848   24.6335    2.4056 C.ar      12 UNK        -0.0807 
     10 C10        32.6832   25.4378    3.1120 C.ar      12 UNK        -0.0894 
     11 C11        32.4181   25.8108    4.4324 C.ar      12 UNK        -0.0804 
     12 C12        31.2367   25.3825    5.0451 C.ar      12 UNK        -0.0824 
     13 C13        30.3386   24.5628    4.3559 C.ar      12 UNK        -0.0762 
     14 C14        30.6198   24.1876    3.0383 C.ar      12 UNK        -0.0782 
     15 C15        29.0772   24.0587    5.0407 C.3       12 UNK         0.0230 
     16 S16        27.5817   24.8675    4.3948 S.3       12 UNK        -0.2608 
     17 C17        27.7476   26.5679    5.0453 C.3       12 UNK        -0.0989 
     18 CA         28.2024   27.5890    3.9709 C.3       5 UNK         0.0716 
     19 N          27.3734   27.5192    2.7686 N.am      5 UNK        -0.4135 
     20 C          27.6127   28.1430    1.6120 C.2       4 UNK         0.5031 
     21 O          28.5988   28.8595    1.4199 O.2       4 UNK        -0.5229 
     22 CA         26.5754   27.9370    0.4886 C.3       4 UNK         0.0329 
     23 CB         27.0996   28.3746   -0.8914 C.3       4 UNK        -0.2001 
     24 N          26.1082   26.5526    0.3798 N.am      4 UNK        -0.4303 
     25 C          25.1894   25.9518    1.1482 C.2       3 UNK         0.5044 
     26 O          24.6752   26.4957    2.1262 O.2       3 UNK        -0.5152 
     27 CA         24.8100   24.4962    0.7958 C.3       3 UNK         0.0319 
     28 CB         23.2942   24.2416    0.9307 C.3       3 UNK        -0.2001 
     29 N          25.3107   24.0419   -0.5117 N.am      3 UNK        -0.4354 
     30 C          24.9911   24.5051   -1.7303 C.2       2 UNK         0.4964 
     31 O          24.1419   25.3732   -1.9353 O.2       2 UNK        -0.5047 
     32 CA         25.8277   23.9514   -2.9019 C.3       2 UNK         0.0288 
     33 CB         25.3771   24.5040   -4.2676 C.3       2 UNK        -0.2113 
     34 N          27.2561   24.2420   -2.7213 N.am      2 UNK        -0.4145 
     35 C          28.0814   23.5541   -1.9203 C.2       1 UNK         0.5006 
     36 O          27.7172   22.5885   -1.2429 O.2       1 UNK        -0.5103 
     37 C          28.1695   29.0261    4.5261 C.2       5 UNK         0.5055 
     38 O          27.0812   29.5282    4.8163 O.2       5 UNK        -0.5220 
     39 N          29.3429   29.6658    4.6235 N.am      6 UNK        -0.4450 
     40 CA         29.5584   31.0741    4.9831 C.3       6 UNK         0.0367 
     41 CB         29.0120   31.4047    6.3886 C.3       6 UNK        -0.1929 
     42 C          29.0980   32.0774    3.9052 C.2       6 UNK         0.5070 
     43 O          29.0362   33.2734    4.1937 O.2       6 UNK        -0.5237 
     44 N          28.8206   31.5984    2.6840 N.am      7 UNK        -0.4739 
     45 CA         28.4878   32.4183    1.5175 C.3       7 UNK         0.0276 
     46 CB         27.0684   32.0860    1.0278 C.3       7 UNK        -0.1927 
     47 C          29.5316   32.2178    0.4108 C.2       7 UNK         0.5013 
     48 O          30.0886   33.2040   -0.0725 O.2       7 UNK        -0.5193 
     49 N          29.8049   30.9557    0.0487 N.am      8 UNK        -0.4253 
     50 CA         30.8682   30.5815   -0.8883 C.3       8 UNK         0.0242 
     51 CB         30.5658   29.2055   -1.5035 C.3       8 UNK        -0.2000 
     52 C          32.2440   30.5762   -0.2065 C.2       8 UNK         0.4948 
     53 O          33.2223   31.0202   -0.8089 O.2       8 UNK        -0.5275 
     54 N          32.2872   30.0941    1.0399 N.am      9 UNK        -0.4246 
     55 CA         33.4571   30.0725    1.9072 C.3       9 UNK         0.0261 
     56 CB         34.3463   28.8621    1.5715 C.3       9 UNK        -0.1959 
     57 C          32.9615   30.0005    3.3519 C.2       9 UNK         0.5033 
     58 O          31.9492   29.3421    3.6071 O.2       9 UNK        -0.5390 
     59 N          33.6860   30.6576    4.2625 N.am      10 UNK        -0.4215 
     60 CA         33.4690   30.6105    5.7076 C.3       10 UNK         0.0240 
     61 CB         33.3728   32.0427    6.2593 C.3       10 UNK        -0.1982 
     62 C          34.6466   29.8615    6.3400 C.2       10 UNK         0.4970 
     63 O          35.7867   30.0515    5.9083 O.2       10 UNK        -0.4916 
     64 N          34.3481   29.0150    7.3289 N.am      11 UNK        -0.4279 
     65 CA         35.3012   28.0687    7.9266 C.3       11 UNK         0.1003 
     66 C          34.9590   27.6705    9.3914 C.2       11 UNK         0.5709 
     67 N          34.0516   28.3631   10.0717 N.am      11 UNK        -0.7358 
     68 O          35.5412   26.7350    9.9354 O.2       11 UNK        -0.4999 
     69 C69        35.5899   26.8619    6.9846 C.3       12 UNK        -0.0954 
     70 S70        34.1406   25.8127    6.6081 S.3       12 UNK        -0.2268 
     71 C71        33.4018   26.6870    5.1900 C.3       12 UNK         0.0203 
     72 H72        32.5141   21.2391   -3.6543 H         1 UNK         0.0888 
     73 H73        32.0242   20.9083   -1.9918 H         1 UNK         0.0888 
     74 H74        31.1450   20.1710   -3.3327 H         1 UNK         0.0888 
     75 H75        30.8630   22.5854   -1.0734 H         1 UNK         0.3017 
     76 H76        29.7376   24.7435   -2.6232 H         1 UNK         0.0873 
     77 H77        29.0664   25.6820   -0.4265 H         1 UNK         0.0745 
     78 H78        29.4434   24.1888    0.3811 H         1 UNK         0.0745 
     79 H79        33.1775   24.1716    0.8345 H         1 UNK         0.0705 
     80 H80        31.7144   23.2315    0.7647 H         1 UNK         0.0705 
     81 H81        33.5923   25.7711    2.6312 H         1 UNK         0.1334 
     82 H82        31.0301   25.6732    6.0660 H         1 UNK         0.1417 
     83 H83        29.9266   23.5473    2.5113 H         1 UNK         0.1562 
     84 H84        29.1318   24.2000    6.1213 H         1 UNK         0.0748 
     85 H85        28.9900   22.9830    4.8807 H         1 UNK         0.0748 
     86 H86        28.4390   26.5720    5.8898 H         1 UNK         0.0940 
     87 H87        26.7754   26.8514    5.4545 H         1 UNK         0.0940 
     88 H88        29.2261   27.3446    3.6770 H         1 UNK         0.0703 
     89 H89        26.5080   26.9981    2.8518 H         1 UNK         0.3081 
     90 H90        25.7205   28.5701    0.7350 H         1 UNK         0.0719 
     91 H91        27.9569   27.7775   -1.2012 H         1 UNK         0.0809 
     92 H92        26.3291   28.2738   -1.6563 H         1 UNK         0.0809 
     93 H93        27.4095   29.4195   -0.8908 H         1 UNK         0.0809 
     94 H94        26.4844   26.0163   -0.3858 H         1 UNK         0.2990 
     95 H95        25.3134   23.8745    1.5379 H         1 UNK         0.0690 
     96 H96        23.0432   23.2068    0.6979 H         1 UNK         0.0788 
     97 H97        22.7131   24.8855    0.2700 H         1 UNK         0.0788 
     98 H98        22.9542   24.4340    1.9491 H         1 UNK         0.0788 
     99 H99        26.0492   23.3436   -0.4767 H         1 UNK         0.2993 
    100 H100       25.6826   22.8685   -2.9188 H         1 UNK         0.0949 
    101 H101       25.4977   25.5866   -4.3273 H         1 UNK         0.0767 
    102 H102       25.9468   24.0575   -5.0830 H         1 UNK         0.0767 
    103 H103       24.3249   24.2819   -4.4512 H         1 UNK         0.0767 
    104 H104       27.6198   25.0300   -3.2383 H         1 UNK         0.3013 
    105 H105       30.1892   29.1986    4.2992 H         1 UNK         0.3121 
    106 H106       30.6386   31.1985    5.0323 H         1 UNK         0.0774 
    107 H107       29.3509   32.3882    6.7160 H         1 UNK         0.0815 
    108 H108       27.9223   31.4181    6.4105 H         1 UNK         0.0815 
    109 H109       29.3565   30.6829    7.1288 H         1 UNK         0.0815 
    110 H110       28.8937   30.5995    2.5272 H         1 UNK         0.2987 
    111 H111       28.5052   33.4788    1.7786 H         1 UNK         0.0949 
    112 H112       26.8209   32.6547    0.1304 H         1 UNK         0.0806 
    113 H113       26.9520   31.0305    0.7894 H         1 UNK         0.0806 
    114 H114       26.3255   32.3367    1.7851 H         1 UNK         0.0806 
    115 H115       29.3091   30.1896    0.5032 H         1 UNK         0.3010 
    116 H116       30.9014   31.3128   -1.6991 H         1 UNK         0.0829 
    117 H117       29.6671   29.2401   -2.1181 H         1 UNK         0.0813 
    118 H118       31.3817   28.8768   -2.1488 H         1 UNK         0.0813 
    119 H119       30.4274   28.4394   -0.7391 H         1 UNK         0.0813 
    120 H120       31.4416   29.7482    1.4763 H         1 UNK         0.3038 
    121 H121       34.0235   30.9964    1.7707 H         1 UNK         0.0769 
    122 H122       35.1927   28.7916    2.2560 H         1 UNK         0.0811 
    123 H123       34.7503   28.9343    0.5617 H         1 UNK         0.0811 
    124 H124       33.7878   27.9282    1.6398 H         1 UNK         0.0811 
    125 H125       34.5449   31.1051    3.9714 H         1 UNK         0.3204 
    126 H126       32.5433   30.0810    5.9419 H         1 UNK         0.0748 
    127 H127       33.1890   32.0357    7.3345 H         1 UNK         0.0771 
    128 H128       34.2917   32.6055    6.0885 H         1 UNK         0.0771 
    129 H129       32.5548   32.5935    5.7948 H         1 UNK         0.0771 
    130 H130       33.3908   28.9138    7.6327 H         1 UNK         0.2980 
    131 H131       36.2453   28.6052    8.0379 H         1 UNK         0.0545 
    132 H132       33.8493   28.0934   11.0217 H         1 UNK         0.3459 
    133 H133       33.6143   29.1823    9.6832 H         1 UNK         0.3459 
    134 H134       36.3583   26.2223    7.4218 H         1 UNK         0.0616 
    135 H135       36.0202   27.2151    6.0466 H         1 UNK         0.0616 
    136 H136       34.1898   27.0437    4.5251 H         1 UNK         0.0634 
    137 H137       32.8692   27.5675    5.5461 H         1 UNK         0.0634 
@<TRIPOS>BOND
     1    1    2 1    
     2    1   72 1    
     3    1   73 1    
     4    1   74 1    
     5    2    3 2    
     6    2    4 am   BACKBONE|DICT|INTERRES
     7    4    5 1    
     8    4   75 1    
     9    5    6 1    
    10    5   35 1    
    11    5   76 1    
    12    6    7 1    
    13    6   77 1    
    14    6   78 1    
    15    7    8 1    
    16    8    9 1    
    17    8   79 1    
    18    8   80 1    
    19    9   10 ar   
    20    9   14 ar   
    21   10   11 ar   
    22   10   81 1    
    23   11   12 ar   
    24   11   71 1    
    25   12   13 ar   
    26   12   82 1    
    27   13   14 ar   
    28   13   15 1    
    29   14   83 1    
    30   15   16 1    
    31   15   84 1    
    32   15   85 1    
    33   16   17 1    
    34   17   18 1    
    35   17   86 1    
    36   17   87 1    
    37   18   19 1    
    38   18   37 1    
    39   18   88 1    
    40   19   20 am   BACKBONE|DICT|INTERRES
    41   19   89 1    
    42   20   21 2    
    43   20   22 1    
    44   22   23 1    
    45   22   24 1    
    46   22   90 1    
    47   23   91 1    
    48   23   92 1    
    49   23   93 1    
    50   24   25 am   BACKBONE|DICT|INTERRES
    51   24   94 1    
    52   25   26 2    
    53   25   27 1    
    54   27   28 1    
    55   27   29 1    
    56   27   95 1    
    57   28   96 1    
    58   28   97 1    
    59   28   98 1    
    60   29   30 am   BACKBONE|DICT|INTERRES
    61   29   99 1    
    62   30   31 2    
    63   30   32 1    
    64   32   33 1    
    65   32   34 1    
    66   32  100 1    
    67   33  101 1    
    68   33  102 1    
    69   33  103 1    
    70   34   35 am   BACKBONE|DICT|INTERRES
    71   34  104 1    
    72   35   36 2    
    73   37   38 2    
    74   37   39 am   BACKBONE|DICT|INTERRES
    75   39   40 1    
    76   39  105 1    
    77   40   41 1    
    78   40   42 1    
    79   40  106 1    
    80   41  107 1    
    81   41  108 1    
    82   41  109 1    
    83   42   43 2    
    84   42   44 am   BACKBONE|DICT|INTERRES
    85   44   45 1    
    86   44  110 1    
    87   45   46 1    
    88   45   47 1    
    89   45  111 1    
    90   46  112 1    
    91   46  113 1    
    92   46  114 1    
    93   47   48 2    
    94   47   49 am   BACKBONE|DICT|INTERRES
    95   49   50 1    
    96   49  115 1    
    97   50   51 1    
    98   50   52 1    
    99   50  116 1    
   100   51  117 1    
   101   51  118 1    
   102   51  119 1    
   103   52   53 2    
   104   52   54 am   BACKBONE|DICT|INTERRES
   105   54   55 1    
   106   54  120 1    
   107   55   56 1    
   108   55   57 1    
   109   55  121 1    
   110   56  122 1    
   111   56  123 1    
   112   56  124 1    
   113   57   58 2    
   114   57   59 am   BACKBONE|DICT|INTERRES
   115   59   60 1    
   116   59  125 1    
   117   60   61 1    
   118   60   62 1    
   119   60  126 1    
   120   61  127 1    
   121   61  128 1    
   122   61  129 1    
   123   62   63 2    
   124   62   64 am   BACKBONE|DICT|INTERRES
   125   64   65 1    
   126   64  130 1    
   127   65   66 1    
   128   65   69 1    
   129   65  131 1    
   130   66   67 am   BACKBONE|DICT|INTERRES
   131   66   68 2    
   132   67  132 1    
   133   67  133 1    
   134   69   70 1    
   135   69  134 1    
   136   69  135 1    
   137   70   71 1    
   138   71  136 1    
   139   71  137 1    
@<TRIPOS>SUBSTRUCTURE
     1 UNK         1 GROUP             0       ****    0 ROOT    
