@<TRIPOS>MOLECULE
3R136
137   139    1
SMALL
USER_CHARGES


@<TRIPOS>ATOM
      1 CA         34.3521   23.3915   -0.9302 C.3       0 UNK        -0.1979 
      2 C          32.9221   23.1210   -0.4874 C.2       0 UNK         0.4864 
      3 O          32.1039   22.6949   -1.3043 O.2       0 UNK        -0.5359 
      4 N          32.6218   23.3669    0.7955 N.am      1 UNK        -0.4318 
      5 CA         31.3252   23.2006    1.4645 C.3       1 UNK         0.0824 
      6 C6         30.8263   21.7290    1.5174 C.3       12 UNK        -0.0944 
      7 S7         31.7307   20.7735    2.7788 S.3       12 UNK        -0.2672 
      8 C8         30.4935   20.6782    4.1164 C.3       12 UNK         0.0333 
      9 C9         30.0729   22.0564    4.6121 C.ar      12 UNK        -0.0807 
     10 C10        30.9225   22.7937    5.4403 C.ar      12 UNK        -0.0894 
     11 C11        30.5459   24.0594    5.8977 C.ar      12 UNK        -0.0804 
     12 C12        29.3131   24.5944    5.5036 C.ar      12 UNK        -0.0824 
     13 C13        28.4497   23.8699    4.6715 C.ar      12 UNK        -0.0762 
     14 C14        28.8332   22.5919    4.2471 C.ar      12 UNK        -0.0782 
     15 C15        27.1003   24.4649    4.2610 C.3       12 UNK         0.0230 
     16 S16        26.7243   24.2116    2.4874 S.3       12 UNK        -0.2608 
     17 C17        25.5311   25.5302    2.0368 C.3       12 UNK        -0.0989 
     18 CA         25.8946   26.9672    2.4996 C.3       5 UNK         0.0716 
     19 N          27.3169   27.2628    2.3592 N.am      5 UNK        -0.4135 
     20 C          27.9746   28.1468    3.1146 C.2       4 UNK         0.5031 
     21 O          27.4830   28.7009    4.0987 O.2       4 UNK        -0.5229 
     22 CA         29.4279   28.4449    2.7270 C.3       4 UNK         0.0329 
     23 CB         30.3772   27.7990    3.7342 C.3       4 UNK        -0.2001 
     24 N          29.7664   27.9967    1.3727 N.am      4 UNK        -0.4303 
     25 C          29.5169   28.7040    0.2607 C.2       3 UNK         0.5044 
     26 O          28.9945   29.8157    0.2616 O.2       3 UNK        -0.5152 
     27 CA         29.8882   28.0620   -1.0874 C.3       3 UNK         0.0319 
     28 CB         31.3496   28.3773   -1.4437 C.3       3 UNK        -0.2001 
     29 N          29.6799   26.6137   -1.1277 N.am      3 UNK        -0.4354 
     30 C          28.5066   26.0024   -0.9155 C.2       2 UNK         0.4964 
     31 O          27.4533   26.6002   -0.6895 O.2       2 UNK        -0.5047 
     32 CA         28.5226   24.4659   -0.8890 C.3       2 UNK         0.0288 
     33 CB         28.3475   23.9045   -2.3086 C.3       2 UNK        -0.2113 
     34 N          29.7076   23.8559   -0.2689 N.am      2 UNK        -0.4145 
     35 C          30.2499   24.1594    0.9207 C.2       1 UNK         0.5006 
     36 O          29.9396   25.1454    1.5888 O.2       1 UNK        -0.5103 
     37 C          25.0787   28.0434    1.7510 C.2       5 UNK         0.5055 
     38 O          24.0364   28.4726    2.2476 O.2       5 UNK        -0.5220 
     39 N          25.5774   28.4658    0.5784 N.am      6 UNK        -0.4450 
     40 CA         24.9776   29.4905   -0.2750 C.3       6 UNK         0.0367 
     41 CB         25.4842   29.2984   -1.7141 C.3       6 UNK        -0.1929 
     42 C          25.2493   30.9319    0.1939 C.2       6 UNK         0.5070 
     43 O          24.3410   31.7605    0.1200 O.2       6 UNK        -0.5237 
     44 N          26.4828   31.2252    0.6242 N.am      7 UNK        -0.4739 
     45 CA         26.9658   32.5694    0.9568 C.3       7 UNK         0.0276 
     46 CB         27.6999   33.1431   -0.2714 C.3       7 UNK        -0.1927 
     47 C          27.8752   32.5286    2.1961 C.2       7 UNK         0.5013 
     48 O          28.0432   31.4739    2.8043 O.2       7 UNK        -0.5193 
     49 N          28.4559   33.6760    2.5683 N.am      8 UNK        -0.4253 
     50 CA         29.3438   33.8251    3.7274 C.3       8 UNK         0.0242 
     51 CB         29.2033   35.2590    4.2749 C.3       8 UNK        -0.2000 
     52 C          30.8066   33.4561    3.3974 C.2       8 UNK         0.4948 
     53 O          31.7021   34.2833    3.5834 O.2       8 UNK        -0.5275 
     54 N          31.0285   32.2329    2.8992 N.am      9 UNK        -0.4246 
     55 CA         32.3575   31.6859    2.6000 C.3       9 UNK         0.0261 
     56 CB         32.2599   30.7635    1.3741 C.3       9 UNK        -0.1959 
     57 C          32.9368   30.9243    3.8065 C.2       9 UNK         0.5033 
     58 O          32.2159   30.6290    4.7615 O.2       9 UNK        -0.5390 
     59 N          34.2302   30.5850    3.7194 N.am      10 UNK        -0.4215 
     60 CA         35.0079   29.8966    4.7599 C.3       10 UNK         0.0240 
     61 CB         36.4502   30.4378    4.7283 C.3       10 UNK        -0.1982 
     62 C          34.9786   28.3543    4.6570 C.2       10 UNK         0.4970 
     63 O          35.8580   27.6996    5.2182 O.2       10 UNK        -0.4916 
     64 N          33.9908   27.8023    3.9408 N.am      11 UNK        -0.4279 
     65 CA         33.7369   26.3611    3.7251 C.3       11 UNK         0.1003 
     66 C          34.7334   25.6524    2.7616 C.2       11 UNK         0.5709 
     67 N          35.6693   26.3508    2.1314 N.am      11 UNK        -0.7358 
     68 O          34.6170   24.4510    2.5325 O.2       11 UNK        -0.4999 
     69 C69        33.5117   25.5503    5.0387 C.3       12 UNK        -0.0954 
     70 S70        32.2377   26.2794    6.1244 S.3       12 UNK        -0.2268 
     71 C71        31.4468   24.8176    6.8659 C.3       12 UNK         0.0203 
     72 H72        34.3677   24.1699   -1.6924 H         1 UNK         0.0888 
     73 H73        34.9822   23.7141   -0.1017 H         1 UNK         0.0888 
     74 H74        34.7896   22.4885   -1.3550 H         1 UNK         0.0888 
     75 H75        33.3628   23.7084    1.4050 H         1 UNK         0.3017 
     76 H76        31.4924   23.5277    2.4927 H         1 UNK         0.0873 
     77 H77        30.9446   21.2310    0.5546 H         1 UNK         0.0745 
     78 H78        29.7591   21.6757    1.7386 H         1 UNK         0.0745 
     79 H79        29.6288   20.1127    3.7656 H         1 UNK         0.0705 
     80 H80        30.9136   20.1070    4.9455 H         1 UNK         0.0705 
     81 H81        31.8748   22.3741    5.7350 H         1 UNK         0.1334 
     82 H82        29.0249   25.5752    5.8571 H         1 UNK         0.1417 
     83 H83        28.1681   22.0178    3.6168 H         1 UNK         0.1562 
     84 H84        27.0884   25.5273    4.4981 H         1 UNK         0.0748 
     85 H85        26.3113   24.0075    4.8589 H         1 UNK         0.0748 
     86 H86        24.5497   25.2540    2.4263 H         1 UNK         0.0940 
     87 H87        25.4360   25.4946    0.9494 H         1 UNK         0.0940 
     88 H88        25.6239   27.0450    3.5546 H         1 UNK         0.0703 
     89 H89        27.8040   26.8012    1.6032 H         1 UNK         0.3081 
     90 H90        29.5765   29.5217    2.7909 H         1 UNK         0.0719 
     91 H91        30.1223   28.0867    4.7553 H         1 UNK         0.0809 
     92 H92        30.3531   26.7103    3.6836 H         1 UNK         0.0809 
     93 H93        31.3939   28.1348    3.5602 H         1 UNK         0.0809 
     94 H94        30.1055   27.0417    1.2898 H         1 UNK         0.2990 
     95 H95        29.2450   28.5066   -1.8497 H         1 UNK         0.0690 
     96 H96        31.6069   28.0030   -2.4347 H         1 UNK         0.0788 
     97 H97        32.0452   27.9391   -0.7266 H         1 UNK         0.0788 
     98 H98        31.5246   29.4541   -1.4515 H         1 UNK         0.0788 
     99 H99        30.4926   26.0376   -1.2919 H         1 UNK         0.2993 
    100 H100       27.6615   24.1524   -0.2974 H         1 UNK         0.0949 
    101 H101       28.2170   22.8222   -2.2936 H         1 UNK         0.0767 
    102 H102       27.4657   24.3283   -2.7919 H         1 UNK         0.0767 
    103 H103       29.2078   24.1299   -2.9402 H         1 UNK         0.0767 
    104 H104       30.1505   23.1016   -0.7831 H         1 UNK         0.3013 
    105 H105       26.4029   28.0011    0.2120 H         1 UNK         0.3121 
    106 H106       23.8954   29.3425   -0.2781 H         1 UNK         0.0774 
    107 H107       26.5677   29.4098   -1.7782 H         1 UNK         0.0815 
    108 H108       25.0392   30.0326   -2.3871 H         1 UNK         0.0815 
    109 H109       25.2277   28.3100   -2.0962 H         1 UNK         0.0815 
    110 H110       27.1923   30.4990    0.6825 H         1 UNK         0.2987 
    111 H111       26.1224   33.2168    1.2060 H         1 UNK         0.0949 
    112 H112       28.5914   32.5612   -0.5103 H         1 UNK         0.0806 
    113 H113       27.0571   33.1412   -1.1519 H         1 UNK         0.0806 
    114 H114       28.0131   34.1749   -0.1106 H         1 UNK         0.0806 
    115 H115       28.3036   34.5039    2.0105 H         1 UNK         0.3010 
    116 H116       29.0191   33.1441    4.5176 H         1 UNK         0.0829 
    117 H117       29.8139   35.3985    5.1680 H         1 UNK         0.0813 
    118 H118       29.5188   36.0045    3.5438 H         1 UNK         0.0813 
    119 H119       28.1725   35.4777    4.5544 H         1 UNK         0.0813 
    120 H120       30.2372   31.6055    2.8145 H         1 UNK         0.3038 
    121 H121       33.0364   32.5054    2.3541 H         1 UNK         0.0769 
    122 H122       31.6879   31.2245    0.5683 H         1 UNK         0.0811 
    123 H123       31.7873   29.8166    1.6242 H         1 UNK         0.0811 
    124 H124       33.2478   30.5321    0.9747 H         1 UNK         0.0811 
    125 H125       34.7400   30.8452    2.8864 H         1 UNK         0.3204 
    126 H126       34.5855   30.1457    5.7358 H         1 UNK         0.0748 
    127 H127       37.0448   30.0288    5.5465 H         1 UNK         0.0771 
    128 H128       36.9573   30.1823    3.7971 H         1 UNK         0.0771 
    129 H129       36.4692   31.5227    4.8348 H         1 UNK         0.0771 
    130 H130       33.3229   28.4282    3.5199 H         1 UNK         0.2980 
    131 H131       32.7965   26.3225    3.1762 H         1 UNK         0.0545 
    132 H132       36.2968   25.8780    1.5010 H         1 UNK         0.3459 
    133 H133       35.7751   27.3367    2.3036 H         1 UNK         0.3459 
    134 H134       34.4390   25.4669    5.6069 H         1 UNK         0.0616 
    135 H135       33.2129   24.5289    4.7987 H         1 UNK         0.0616 
    136 H136       32.2197   24.1645    7.2741 H         1 UNK         0.0634 
    137 H137       30.8487   25.1454    7.7172 H         1 UNK         0.0634 
@<TRIPOS>BOND
     1    1    2 1    
     2    1   72 1    
     3    1   73 1    
     4    1   74 1    
     5    2    3 2    
     6    2    4 am   BACKBONE|DICT|INTERRES
     7    4    5 1    
     8    4   75 1    
     9    5    6 1    
    10    5   35 1    
    11    5   76 1    
    12    6    7 1    
    13    6   77 1    
    14    6   78 1    
    15    7    8 1    
    16    8    9 1    
    17    8   79 1    
    18    8   80 1    
    19    9   10 ar   
    20    9   14 ar   
    21   10   11 ar   
    22   10   81 1    
    23   11   12 ar   
    24   11   71 1    
    25   12   13 ar   
    26   12   82 1    
    27   13   14 ar   
    28   13   15 1    
    29   14   83 1    
    30   15   16 1    
    31   15   84 1    
    32   15   85 1    
    33   16   17 1    
    34   17   18 1    
    35   17   86 1    
    36   17   87 1    
    37   18   19 1    
    38   18   37 1    
    39   18   88 1    
    40   19   20 am   BACKBONE|DICT|INTERRES
    41   19   89 1    
    42   20   21 2    
    43   20   22 1    
    44   22   23 1    
    45   22   24 1    
    46   22   90 1    
    47   23   91 1    
    48   23   92 1    
    49   23   93 1    
    50   24   25 am   BACKBONE|DICT|INTERRES
    51   24   94 1    
    52   25   26 2    
    53   25   27 1    
    54   27   28 1    
    55   27   29 1    
    56   27   95 1    
    57   28   96 1    
    58   28   97 1    
    59   28   98 1    
    60   29   30 am   BACKBONE|DICT|INTERRES
    61   29   99 1    
    62   30   31 2    
    63   30   32 1    
    64   32   33 1    
    65   32   34 1    
    66   32  100 1    
    67   33  101 1    
    68   33  102 1    
    69   33  103 1    
    70   34   35 am   BACKBONE|DICT|INTERRES
    71   34  104 1    
    72   35   36 2    
    73   37   38 2    
    74   37   39 am   BACKBONE|DICT|INTERRES
    75   39   40 1    
    76   39  105 1    
    77   40   41 1    
    78   40   42 1    
    79   40  106 1    
    80   41  107 1    
    81   41  108 1    
    82   41  109 1    
    83   42   43 2    
    84   42   44 am   BACKBONE|DICT|INTERRES
    85   44   45 1    
    86   44  110 1    
    87   45   46 1    
    88   45   47 1    
    89   45  111 1    
    90   46  112 1    
    91   46  113 1    
    92   46  114 1    
    93   47   48 2    
    94   47   49 am   BACKBONE|DICT|INTERRES
    95   49   50 1    
    96   49  115 1    
    97   50   51 1    
    98   50   52 1    
    99   50  116 1    
   100   51  117 1    
   101   51  118 1    
   102   51  119 1    
   103   52   53 2    
   104   52   54 am   BACKBONE|DICT|INTERRES
   105   54   55 1    
   106   54  120 1    
   107   55   56 1    
   108   55   57 1    
   109   55  121 1    
   110   56  122 1    
   111   56  123 1    
   112   56  124 1    
   113   57   58 2    
   114   57   59 am   BACKBONE|DICT|INTERRES
   115   59   60 1    
   116   59  125 1    
   117   60   61 1    
   118   60   62 1    
   119   60  126 1    
   120   61  127 1    
   121   61  128 1    
   122   61  129 1    
   123   62   63 2    
   124   62   64 am   BACKBONE|DICT|INTERRES
   125   64   65 1    
   126   64  130 1    
   127   65   66 1    
   128   65   69 1    
   129   65  131 1    
   130   66   67 am   BACKBONE|DICT|INTERRES
   131   66   68 2    
   132   67  132 1    
   133   67  133 1    
   134   69   70 1    
   135   69  134 1    
   136   69  135 1    
   137   70   71 1    
   138   71  136 1    
   139   71  137 1    
@<TRIPOS>SUBSTRUCTURE
     1 UNK         1 GROUP             0       ****    0 ROOT    
