@<TRIPOS>MOLECULE
3R136
137   139    1
SMALL
USER_CHARGES


@<TRIPOS>ATOM
      1 CA         34.1092   23.0929    0.6166 C.3       0 UNK        -0.1979 
      2 C          32.7479   22.4344    0.7860 C.2       0 UNK         0.4864 
      3 O          32.5893   21.2657    0.4307 O.2       0 UNK        -0.5359 
      4 N          31.7733   23.1859    1.3190 N.am      1 UNK        -0.4318 
      5 CA         30.3759   22.7892    1.5584 C.3       1 UNK         0.0824 
      6 C6         30.2203   21.6463    2.6031 C.3       12 UNK        -0.0944 
      7 S7         31.1812   21.9070    4.1337 S.3       12 UNK        -0.2672 
      8 C8         29.8888   22.3457    5.3400 C.3       12 UNK         0.0333 
      9 C9         29.3988   23.7859    5.2231 C.ar      12 UNK        -0.0807 
     10 C10        30.3054   24.8486    5.1245 C.ar      12 UNK        -0.0894 
     11 C11        29.8528   26.1709    5.1151 C.ar      12 UNK        -0.0804 
     12 C12        28.4849   26.4290    5.2320 C.ar      12 UNK        -0.0824 
     13 C13        27.5648   25.3802    5.2980 C.ar      12 UNK        -0.0762 
     14 C14        28.0285   24.0604    5.2900 C.ar      12 UNK        -0.0782 
     15 C15        26.0742   25.6708    5.4086 C.3       12 UNK         0.0230 
     16 S16        25.3479   26.1453    3.8056 S.3       12 UNK        -0.2608 
     17 C17        25.6565   27.9454    3.7488 C.3       12 UNK        -0.0989 
     18 CA         26.7256   28.3501    2.7011 C.3       5 UNK         0.0716 
     19 N          26.2925   28.0701    1.3347 N.am      5 UNK        -0.4135 
     20 C          26.8314   27.1650    0.5148 C.2       4 UNK         0.5031 
     21 O          27.7483   26.3983    0.8211 O.2       4 UNK        -0.5229 
     22 CA         26.2753   27.1564   -0.9183 C.3       4 UNK         0.0329 
     23 CB         27.1339   28.0494   -1.8289 C.3       4 UNK        -0.2001 
     24 N          26.2517   25.8043   -1.4683 N.am      4 UNK        -0.4303 
     25 C          25.4370   24.8182   -1.0782 C.2       3 UNK         0.5044 
     26 O          24.5050   24.9755   -0.2885 O.2       3 UNK        -0.5152 
     27 CA         25.7037   23.4131   -1.6522 C.3       3 UNK         0.0319 
     28 CB         25.0160   23.2293   -3.0192 C.3       3 UNK        -0.2001 
     29 N          27.1246   23.0328   -1.7035 N.am      3 UNK        -0.4354 
     30 C          28.1165   23.5423   -2.4478 C.2       2 UNK         0.4964 
     31 O          27.9668   24.4610   -3.2559 O.2       2 UNK        -0.5047 
     32 CA         29.5146   22.9455   -2.2119 C.3       2 UNK         0.0288 
     33 CB         30.5684   23.4945   -3.1925 C.3       2 UNK        -0.2113 
     34 N          29.9818   23.1840   -0.8453 N.am      2 UNK        -0.4145 
     35 C          29.6312   22.4740    0.2371 C.2       1 UNK         0.5006 
     36 O          28.7731   21.5874    0.2043 O.2       1 UNK        -0.5103 
     37 C          27.0121   29.8586    2.7839 C.2       5 UNK         0.5055 
     38 O          26.3750   30.6422    2.0731 O.2       5 UNK        -0.5220 
     39 N          27.9411   30.2427    3.6623 N.am      6 UNK        -0.4450 
     40 CA         28.3647   31.6154    3.9117 C.3       6 UNK         0.0367 
     41 CB         29.4003   32.0380    2.8514 C.3       6 UNK        -0.1929 
     42 C          28.9489   31.6984    5.3276 C.2       6 UNK         0.5070 
     43 O          29.2381   30.6654    5.9368 O.2       6 UNK        -0.5237 
     44 N          29.1223   32.9309    5.8204 N.am      7 UNK        -0.4739 
     45 CA         29.7183   33.2338    7.1285 C.3       7 UNK         0.0276 
     46 CB         29.1996   34.6031    7.6009 C.3       7 UNK        -0.1927 
     47 C          31.2609   33.2130    7.1226 C.2       7 UNK         0.5013 
     48 O          31.8677   33.3181    8.1896 O.2       7 UNK        -0.5193 
     49 N          31.8632   33.0944    5.9354 N.am      8 UNK        -0.4253 
     50 CA         33.2985   32.9830    5.6920 C.3       8 UNK         0.0242 
     51 CB         33.7977   34.2937    5.0582 C.3       8 UNK        -0.2000 
     52 C          33.5383   31.7923    4.7551 C.2       8 UNK         0.4948 
     53 O          32.5807   31.2511    4.1961 O.2       8 UNK        -0.5275 
     54 N          34.8107   31.4201    4.5630 N.am      9 UNK        -0.4246 
     55 CA         35.2762   30.2781    3.7603 C.3       9 UNK         0.0261 
     56 CB         36.7410   29.9784    4.1326 C.3       9 UNK        -0.1959 
     57 C          35.0744   30.4177    2.2309 C.2       9 UNK         0.5033 
     58 O          35.9533   30.0383    1.4550 O.2       9 UNK        -0.5390 
     59 N          33.9096   30.9290    1.8210 N.am      10 UNK        -0.4215 
     60 CA         33.4372   31.0169    0.4370 C.3       10 UNK         0.0240 
     61 CB         32.6123   32.3069    0.2848 C.3       10 UNK        -0.1982 
     62 C          32.6047   29.7854    0.0263 C.2       10 UNK         0.4970 
     63 O          32.1657   29.7134   -1.1217 O.2       10 UNK        -0.4916 
     64 N          32.3867   28.8552    0.9652 N.am      11 UNK        -0.4279 
     65 CA         31.5619   27.6447    0.8273 C.3       11 UNK         0.1003 
     66 C          32.1123   26.5721   -0.1572 C.2       11 UNK         0.5709 
     67 N          33.3448   26.6712   -0.6394 N.am      11 UNK        -0.7358 
     68 O          31.4108   25.6170   -0.4761 O.2       11 UNK        -0.4999 
     69 C69        31.2612   27.0093    2.2134 C.3       12 UNK        -0.0954 
     70 S70        30.6323   28.2197    3.4240 S.3       12 UNK        -0.2268 
     71 C71        30.8357   27.3261    4.9955 C.3       12 UNK         0.0203 
     72 H72        34.3821   23.1221   -0.4379 H         1 UNK         0.0888 
     73 H73        34.1200   24.1141    0.9975 H         1 UNK         0.0888 
     74 H74        34.8699   22.5246    1.1511 H         1 UNK         0.0888 
     75 H75        31.9837   24.1426    1.5604 H         1 UNK         0.3017 
     76 H76        29.8821   23.6720    1.9686 H         1 UNK         0.0873 
     77 H77        29.1680   21.5114    2.8597 H         1 UNK         0.0745 
     78 H78        30.5463   20.6963    2.1756 H         1 UNK         0.0745 
     79 H79        29.0626   21.6384    5.2531 H         1 UNK         0.0705 
     80 H80        30.2986   22.2102    6.3417 H         1 UNK         0.0705 
     81 H81        31.3661   24.6455    5.0702 H         1 UNK         0.1334 
     82 H82        28.1388   27.4515    5.2587 H         1 UNK         0.1417 
     83 H83        27.3208   23.2458    5.3660 H         1 UNK         0.1562 
     84 H84        25.8947   26.4464    6.1544 H         1 UNK         0.0748 
     85 H85        25.5485   24.7861    5.7711 H         1 UNK         0.0748 
     86 H86        25.9393   28.2930    4.7438 H         1 UNK         0.0940 
     87 H87        24.7067   28.4370    3.5287 H         1 UNK         0.0940 
     88 H88        27.6562   27.8196    2.9091 H         1 UNK         0.0703 
     89 H89        25.6091   28.7214    0.9732 H         1 UNK         0.3081 
     90 H90        25.2523   27.5391   -0.9097 H         1 UNK         0.0719 
     91 H91        28.1659   27.6980   -1.8782 H         1 UNK         0.0809 
     92 H92        26.7401   28.0760   -2.8451 H         1 UNK         0.0809 
     93 H93        27.1564   29.0768   -1.4627 H         1 UNK         0.0809 
     94 H94        26.9887   25.5584   -2.1239 H         1 UNK         0.2990 
     95 H95        25.2429   22.7061   -0.9604 H         1 UNK         0.0690 
     96 H96        25.1447   22.2141   -3.3944 H         1 UNK         0.0788 
     97 H97        25.4057   23.9168   -3.7704 H         1 UNK         0.0788 
     98 H98        23.9436   23.4125   -2.9408 H         1 UNK         0.0788 
     99 H99        27.4039   22.3307   -1.0233 H         1 UNK         0.2993 
    100 H100       29.4390   21.8682   -2.3760 H         1 UNK         0.0949 
    101 H101       30.7082   24.5700   -3.0731 H         1 UNK         0.0767 
    102 H102       31.5355   23.0139   -3.0430 H         1 UNK         0.0767 
    103 H103       30.2731   23.3144   -4.2270 H         1 UNK         0.0767 
    104 H104       30.6231   23.9654   -0.7212 H         1 UNK         0.3013 
    105 H105       28.4167   29.5649    4.2465 H         1 UNK         0.3121 
    106 H106       27.4964   32.2764    3.8641 H         1 UNK         0.0774 
    107 H107       29.7636   33.0511    3.0261 H         1 UNK         0.0815 
    108 H108       28.9717   32.0198    1.8494 H         1 UNK         0.0815 
    109 H109       30.2648   31.3732    2.8528 H         1 UNK         0.0815 
    110 H110       28.8525   33.7246    5.2556 H         1 UNK         0.2987 
    111 H111       29.3915   32.4794    7.8480 H         1 UNK         0.0949 
    112 H112       28.1116   34.6142    7.6680 H         1 UNK         0.0806 
    113 H113       29.5843   34.8471    8.5922 H         1 UNK         0.0806 
    114 H114       29.5043   35.4051    6.9275 H         1 UNK         0.0806 
    115 H115       31.2845   32.8978    5.1305 H         1 UNK         0.3010 
    116 H116       33.8329   32.7955    6.6259 H         1 UNK         0.0829 
    117 H117       34.8748   34.2697    4.8890 H         1 UNK         0.0813 
    118 H118       33.3194   34.4849    4.0965 H         1 UNK         0.0813 
    119 H119       33.5942   35.1465    5.7062 H         1 UNK         0.0813 
    120 H120       35.5340   31.9513    5.0268 H         1 UNK         0.3038 
    121 H121       34.6830   29.4117    4.0609 H         1 UNK         0.0769 
    122 H122       37.4034   30.7967    3.8477 H         1 UNK         0.0811 
    123 H123       37.0997   29.0783    3.6313 H         1 UNK         0.0811 
    124 H124       36.8537   29.8106    5.2039 H         1 UNK         0.0811 
    125 H125       33.2426   31.1732    2.5541 H         1 UNK         0.3204 
    126 H126       34.2925   31.0740   -0.2394 H         1 UNK         0.0748 
    127 H127       32.2734   32.4381   -0.7438 H         1 UNK         0.0771 
    128 H128       31.7272   32.2977    0.9216 H         1 UNK         0.0771 
    129 H129       33.2020   33.1864    0.5441 H         1 UNK         0.0771 
    130 H130       32.7674   29.0109    1.8855 H         1 UNK         0.2980 
    131 H131       30.6081   27.9670    0.4052 H         1 UNK         0.0545 
    132 H132       33.9309   27.4507   -0.3892 H         1 UNK         0.3459 
    133 H133       33.6789   25.9737   -1.2840 H         1 UNK         0.3459 
    134 H134       32.1606   26.5468    2.6240 H         1 UNK         0.0616 
    135 H135       30.5160   26.2171    2.1172 H         1 UNK         0.0616 
    136 H136       31.8668   26.9814    5.0866 H         1 UNK         0.0634 
    137 H137       30.6700   28.0243    5.8173 H         1 UNK         0.0634 
@<TRIPOS>BOND
     1    1    2 1    
     2    1   72 1    
     3    1   73 1    
     4    1   74 1    
     5    2    3 2    
     6    2    4 am   BACKBONE|DICT|INTERRES
     7    4    5 1    
     8    4   75 1    
     9    5    6 1    
    10    5   35 1    
    11    5   76 1    
    12    6    7 1    
    13    6   77 1    
    14    6   78 1    
    15    7    8 1    
    16    8    9 1    
    17    8   79 1    
    18    8   80 1    
    19    9   10 ar   
    20    9   14 ar   
    21   10   11 ar   
    22   10   81 1    
    23   11   12 ar   
    24   11   71 1    
    25   12   13 ar   
    26   12   82 1    
    27   13   14 ar   
    28   13   15 1    
    29   14   83 1    
    30   15   16 1    
    31   15   84 1    
    32   15   85 1    
    33   16   17 1    
    34   17   18 1    
    35   17   86 1    
    36   17   87 1    
    37   18   19 1    
    38   18   37 1    
    39   18   88 1    
    40   19   20 am   BACKBONE|DICT|INTERRES
    41   19   89 1    
    42   20   21 2    
    43   20   22 1    
    44   22   23 1    
    45   22   24 1    
    46   22   90 1    
    47   23   91 1    
    48   23   92 1    
    49   23   93 1    
    50   24   25 am   BACKBONE|DICT|INTERRES
    51   24   94 1    
    52   25   26 2    
    53   25   27 1    
    54   27   28 1    
    55   27   29 1    
    56   27   95 1    
    57   28   96 1    
    58   28   97 1    
    59   28   98 1    
    60   29   30 am   BACKBONE|DICT|INTERRES
    61   29   99 1    
    62   30   31 2    
    63   30   32 1    
    64   32   33 1    
    65   32   34 1    
    66   32  100 1    
    67   33  101 1    
    68   33  102 1    
    69   33  103 1    
    70   34   35 am   BACKBONE|DICT|INTERRES
    71   34  104 1    
    72   35   36 2    
    73   37   38 2    
    74   37   39 am   BACKBONE|DICT|INTERRES
    75   39   40 1    
    76   39  105 1    
    77   40   41 1    
    78   40   42 1    
    79   40  106 1    
    80   41  107 1    
    81   41  108 1    
    82   41  109 1    
    83   42   43 2    
    84   42   44 am   BACKBONE|DICT|INTERRES
    85   44   45 1    
    86   44  110 1    
    87   45   46 1    
    88   45   47 1    
    89   45  111 1    
    90   46  112 1    
    91   46  113 1    
    92   46  114 1    
    93   47   48 2    
    94   47   49 am   BACKBONE|DICT|INTERRES
    95   49   50 1    
    96   49  115 1    
    97   50   51 1    
    98   50   52 1    
    99   50  116 1    
   100   51  117 1    
   101   51  118 1    
   102   51  119 1    
   103   52   53 2    
   104   52   54 am   BACKBONE|DICT|INTERRES
   105   54   55 1    
   106   54  120 1    
   107   55   56 1    
   108   55   57 1    
   109   55  121 1    
   110   56  122 1    
   111   56  123 1    
   112   56  124 1    
   113   57   58 2    
   114   57   59 am   BACKBONE|DICT|INTERRES
   115   59   60 1    
   116   59  125 1    
   117   60   61 1    
   118   60   62 1    
   119   60  126 1    
   120   61  127 1    
   121   61  128 1    
   122   61  129 1    
   123   62   63 2    
   124   62   64 am   BACKBONE|DICT|INTERRES
   125   64   65 1    
   126   64  130 1    
   127   65   66 1    
   128   65   69 1    
   129   65  131 1    
   130   66   67 am   BACKBONE|DICT|INTERRES
   131   66   68 2    
   132   67  132 1    
   133   67  133 1    
   134   69   70 1    
   135   69  134 1    
   136   69  135 1    
   137   70   71 1    
   138   71  136 1    
   139   71  137 1    
@<TRIPOS>SUBSTRUCTURE
     1 UNK         1 GROUP             0       ****    0 ROOT    
