@<TRIPOS>MOLECULE
3R136
137   139    1
SMALL
USER_CHARGES


@<TRIPOS>ATOM
      1 CA         26.8893   20.3442   -2.3399 C.3       0 UNK        -0.1979 
      2 C          27.8752   19.7478   -1.3376 C.2       0 UNK         0.4864 
      3 O          27.9677   18.5248   -1.2402 O.2       0 UNK        -0.5359 
      4 N          28.6405   20.5527   -0.5869 N.am      1 UNK        -0.4318 
      5 CA         28.5898   22.0169   -0.5080 C.3       1 UNK         0.0824 
      6 C6         29.8697   22.6048    0.1478 C.3       12 UNK        -0.0944 
      7 S7         30.3146   21.8362    1.7491 S.3       12 UNK        -0.2672 
      8 C8         32.1030   21.5568    1.5565 C.3       12 UNK         0.0333 
      9 C9         32.9004   22.7978    1.9296 C.ar      12 UNK        -0.0807 
     10 C10        33.4056   22.9394    3.2254 C.ar      12 UNK        -0.0894 
     11 C11        34.1448   24.0710    3.5810 C.ar      12 UNK        -0.0804 
     12 C12        34.3686   25.0728    2.6312 C.ar      12 UNK        -0.0824 
     13 C13        33.8726   24.9418    1.3299 C.ar      12 UNK        -0.0762 
     14 C14        33.1462   23.7973    0.9834 C.ar      12 UNK        -0.0782 
     15 C15        34.1608   26.0180    0.2900 C.3       12 UNK         0.0230 
     16 S16        32.6514   26.6969   -0.4721 S.3       12 UNK        -0.2608 
     17 C17        31.8916   27.6080    0.9148 C.3       12 UNK        -0.0989 
     18 CA         30.3646   27.3516    1.0086 C.3       5 UNK         0.0716 
     19 N          29.8288   27.5418    2.3588 N.am      5 UNK        -0.4135 
     20 C          29.7564   28.6892    3.0512 C.2       4 UNK         0.5031 
     21 O          30.2464   29.7596    2.6776 O.2       4 UNK        -0.5229 
     22 CA         28.9811   28.6244    4.3858 C.3       4 UNK         0.0329 
     23 CB         28.4908   30.0081    4.8555 C.3       4 UNK        -0.2001 
     24 N          27.8761   27.6550    4.3903 N.am      4 UNK        -0.4303 
     25 C          26.8117   27.6306    3.5756 C.2       3 UNK         0.5044 
     26 O          26.5886   28.4606    2.6923 O.2       3 UNK        -0.5152 
     27 CA         25.8407   26.4535    3.7780 C.3       3 UNK         0.0319 
     28 CB         24.5413   26.9471    4.4341 C.3       3 UNK        -0.2001 
     29 N          25.5095   25.7205    2.5485 N.am      3 UNK        -0.4354 
     30 C          26.3709   25.2799    1.6201 C.2       2 UNK         0.4964 
     31 O          27.5800   25.5319    1.6173 O.2       2 UNK        -0.5047 
     32 CA         25.7717   24.4251    0.4896 C.3       2 UNK         0.0288 
     33 CB         25.0244   25.2921   -0.5369 C.3       2 UNK        -0.2113 
     34 N          26.8291   23.6840   -0.1990 N.am      2 UNK        -0.4145 
     35 C          27.3158   22.5071    0.2126 C.2       1 UNK         0.5006 
     36 O          26.8141   21.8340    1.1175 O.2       1 UNK        -0.5103 
     37 C          29.5230   28.1383   -0.0211 C.2       5 UNK         0.5055 
     38 O          30.0509   28.9717   -0.7576 O.2       5 UNK        -0.5220 
     39 N          28.2086   27.8716   -0.0156 N.am      6 UNK        -0.4450 
     40 CA         27.1690   28.5134   -0.8301 C.3       6 UNK         0.0367 
     41 CB         27.3374   28.1479   -2.3208 C.3       6 UNK        -0.1929 
     42 C          27.0800   30.0321   -0.5863 C.2       6 UNK         0.5070 
     43 O          27.1112   30.8178   -1.5351 O.2       6 UNK        -0.5237 
     44 N          26.9707   30.4054    0.6967 N.am      7 UNK        -0.4739 
     45 CA         26.8481   31.7714    1.2211 C.3       7 UNK         0.0276 
     46 CB         25.5158   32.4123    0.7762 C.3       7 UNK        -0.1927 
     47 C          28.0679   32.6722    0.9358 C.2       7 UNK         0.5013 
     48 O          27.9221   33.8946    0.8829 O.2       7 UNK        -0.5193 
     49 N          29.2563   32.0684    0.7924 N.am      8 UNK        -0.4253 
     50 CA         30.5286   32.7734    0.6007 C.3       8 UNK         0.0242 
     51 CB         31.5285   31.8270   -0.0818 C.3       8 UNK        -0.2000 
     52 C          31.1249   33.3211    1.9108 C.2       8 UNK         0.4948 
     53 O          32.1077   34.0610    1.8500 O.2       8 UNK        -0.5275 
     54 N          30.5446   32.9337    3.0579 N.am      9 UNK        -0.4246 
     55 CA         30.9923   33.2169    4.4279 C.3       9 UNK         0.0261 
     56 CB         31.0152   34.7331    4.7212 C.3       9 UNK        -0.1959 
     57 C          32.3179   32.5089    4.7726 C.2       9 UNK         0.5033 
     58 O          33.0960   33.0211    5.5803 O.2       9 UNK        -0.5390 
     59 N          32.5414   31.3370    4.1647 N.am      10 UNK        -0.4215 
     60 CA         33.6683   30.4472    4.4385 C.3       10 UNK         0.0240 
     61 CB         34.1927   29.9034    3.0988 C.3       10 UNK        -0.1982 
     62 C          33.2126   29.3031    5.3574 C.2       10 UNK         0.4970 
     63 O          32.0208   29.1820    5.6466 O.2       10 UNK        -0.4916 
     64 N          34.1681   28.4687    5.7851 N.am      11 UNK        -0.4279 
     65 CA         33.9347   27.2730    6.6153 C.3       11 UNK         0.1003 
     66 C          33.5120   27.5709    8.0894 C.2       11 UNK         0.5709 
     67 N          33.7040   28.7835    8.5957 N.am      11 UNK        -0.7358 
     68 O          33.0328   26.6906    8.7999 O.2       11 UNK        -0.4999 
     69 C69        33.0175   26.2375    5.8932 C.3       12 UNK        -0.0954 
     70 S70        33.4674   24.5074    6.2489 S.3       12 UNK        -0.2268 
     71 C71        34.7334   24.1879    4.9804 C.3       12 UNK         0.0203 
     72 H72        26.4711   19.5610   -2.9721 H         1 UNK         0.0888 
     73 H73        26.0602   20.8312   -1.8277 H         1 UNK         0.0888 
     74 H74        27.3754   21.0655   -2.9955 H         1 UNK         0.0888 
     75 H75        29.2596   20.1288    0.0893 H         1 UNK         0.3017 
     76 H76        28.5558   22.4005   -1.5292 H         1 UNK         0.0873 
     77 H77        29.7780   23.6830    0.2958 H         1 UNK         0.0745 
     78 H78        30.7000   22.4809   -0.5482 H         1 UNK         0.0745 
     79 H79        32.3350   21.2408    0.5384 H         1 UNK         0.0705 
     80 H80        32.3931   20.7246    2.1997 H         1 UNK         0.0705 
     81 H81        33.2274   22.1662    3.9606 H         1 UNK         0.1334 
     82 H82        34.9441   25.9476    2.9021 H         1 UNK         0.1417 
     83 H83        32.7691   23.6899   -0.0243 H         1 UNK         0.1562 
     84 H84        34.7838   25.5865   -0.4945 H         1 UNK         0.0748 
     85 H85        34.7369   26.8384    0.7213 H         1 UNK         0.0748 
     86 H86        32.1136   28.6702    0.8133 H         1 UNK         0.0940 
     87 H87        32.3694   27.2873    1.8412 H         1 UNK         0.0940 
     88 H88        30.1956   26.2950    0.7928 H         1 UNK         0.0703 
     89 H89        29.3503   26.7363    2.7394 H         1 UNK         0.3081 
     90 H90        29.6904   28.2580    5.1276 H         1 UNK         0.0719 
     91 H91        27.9398   29.9374    5.7931 H         1 UNK         0.0809 
     92 H92        27.8422   30.4808    4.1189 H         1 UNK         0.0809 
     93 H93        29.3360   30.6715    5.0312 H         1 UNK         0.0809 
     94 H94        27.9573   26.9181    5.0778 H         1 UNK         0.2990 
     95 H95        26.3071   25.7324    4.4522 H         1 UNK         0.0690 
     96 H96        23.8771   26.1182    4.6794 H         1 UNK         0.0788 
     97 H97        23.9983   27.6327    3.7818 H         1 UNK         0.0788 
     98 H98        24.7489   27.4790    5.3639 H         1 UNK         0.0788 
     99 H99        24.5333   25.4907    2.4308 H         1 UNK         0.2993 
    100 H100       25.0622   23.7232    0.9343 H         1 UNK         0.0949 
    101 H101       25.7038   25.9321   -1.0969 H         1 UNK         0.0767 
    102 H102       24.4921   24.6705   -1.2573 H         1 UNK         0.0767 
    103 H103       24.2838   25.9342   -0.0580 H         1 UNK         0.0767 
    104 H104       27.3232   24.1886   -0.9202 H         1 UNK         0.3013 
    105 H105       27.8819   27.1799    0.6543 H         1 UNK         0.3121 
    106 H106       26.2167   28.1056   -0.4902 H         1 UNK         0.0774 
    107 H107       26.4964   28.5172   -2.9088 H         1 UNK         0.0815 
    108 H108       28.2436   28.5824   -2.7440 H         1 UNK         0.0815 
    109 H109       27.3868   27.0692   -2.4661 H         1 UNK         0.0815 
    110 H110       26.9269   29.6671    1.4009 H         1 UNK         0.2987 
    111 H111       26.8065   31.6686    2.3059 H         1 UNK         0.0949 
    112 H112       25.5018   32.6156   -0.2950 H         1 UNK         0.0806 
    113 H113       24.6686   31.7666    1.0071 H         1 UNK         0.0806 
    114 H114       25.3459   33.3603    1.2879 H         1 UNK         0.0806 
    115 H115       29.3031   31.0588    0.8569 H         1 UNK         0.3010 
    116 H116       30.3618   33.6254   -0.0618 H         1 UNK         0.0829 
    117 H117       31.1464   31.4681   -1.0376 H         1 UNK         0.0813 
    118 H118       32.4756   32.3302   -0.2808 H         1 UNK         0.0813 
    119 H119       31.7447   30.9595    0.5414 H         1 UNK         0.0813 
    120 H120       29.7752   32.2839    2.9743 H         1 UNK         0.3038 
    121 H121       30.2424   32.7815    5.0880 H         1 UNK         0.0769 
    122 H122       31.8128   35.2420    4.1796 H         1 UNK         0.0811 
    123 H123       30.0705   35.2046    4.4508 H         1 UNK         0.0811 
    124 H124       31.1779   34.9212    5.7831 H         1 UNK         0.0811 
    125 H125       31.8052   30.9480    3.5846 H         1 UNK         0.3204 
    126 H126       34.4729   30.9911    4.9377 H         1 UNK         0.0748 
    127 H127       35.0791   29.2833    3.2360 H         1 UNK         0.0771 
    128 H128       33.4424   29.2952    2.5980 H         1 UNK         0.0771 
    129 H129       34.4686   30.7141    2.4238 H         1 UNK         0.0771 
    130 H130       35.1290   28.6461    5.5303 H         1 UNK         0.2980 
    131 H131       34.9253   26.8273    6.7081 H         1 UNK         0.0545 
    132 H132       33.4383   28.9660    9.5505 H         1 UNK         0.3459 
    133 H133       34.1022   29.5174    8.0327 H         1 UNK         0.3459 
    134 H134       31.9709   26.3901    6.1623 H         1 UNK         0.0616 
    135 H135       33.0554   26.3754    4.8122 H         1 UNK         0.0616 
    136 H136       35.2461   23.2575    5.2284 H         1 UNK         0.0634 
    137 H137       35.4913   24.9716    5.0210 H         1 UNK         0.0634 
@<TRIPOS>BOND
     1    1    2 1    
     2    1   72 1    
     3    1   73 1    
     4    1   74 1    
     5    2    3 2    
     6    2    4 am   BACKBONE|DICT|INTERRES
     7    4    5 1    
     8    4   75 1    
     9    5    6 1    
    10    5   35 1    
    11    5   76 1    
    12    6    7 1    
    13    6   77 1    
    14    6   78 1    
    15    7    8 1    
    16    8    9 1    
    17    8   79 1    
    18    8   80 1    
    19    9   10 ar   
    20    9   14 ar   
    21   10   11 ar   
    22   10   81 1    
    23   11   12 ar   
    24   11   71 1    
    25   12   13 ar   
    26   12   82 1    
    27   13   14 ar   
    28   13   15 1    
    29   14   83 1    
    30   15   16 1    
    31   15   84 1    
    32   15   85 1    
    33   16   17 1    
    34   17   18 1    
    35   17   86 1    
    36   17   87 1    
    37   18   19 1    
    38   18   37 1    
    39   18   88 1    
    40   19   20 am   BACKBONE|DICT|INTERRES
    41   19   89 1    
    42   20   21 2    
    43   20   22 1    
    44   22   23 1    
    45   22   24 1    
    46   22   90 1    
    47   23   91 1    
    48   23   92 1    
    49   23   93 1    
    50   24   25 am   BACKBONE|DICT|INTERRES
    51   24   94 1    
    52   25   26 2    
    53   25   27 1    
    54   27   28 1    
    55   27   29 1    
    56   27   95 1    
    57   28   96 1    
    58   28   97 1    
    59   28   98 1    
    60   29   30 am   BACKBONE|DICT|INTERRES
    61   29   99 1    
    62   30   31 2    
    63   30   32 1    
    64   32   33 1    
    65   32   34 1    
    66   32  100 1    
    67   33  101 1    
    68   33  102 1    
    69   33  103 1    
    70   34   35 am   BACKBONE|DICT|INTERRES
    71   34  104 1    
    72   35   36 2    
    73   37   38 2    
    74   37   39 am   BACKBONE|DICT|INTERRES
    75   39   40 1    
    76   39  105 1    
    77   40   41 1    
    78   40   42 1    
    79   40  106 1    
    80   41  107 1    
    81   41  108 1    
    82   41  109 1    
    83   42   43 2    
    84   42   44 am   BACKBONE|DICT|INTERRES
    85   44   45 1    
    86   44  110 1    
    87   45   46 1    
    88   45   47 1    
    89   45  111 1    
    90   46  112 1    
    91   46  113 1    
    92   46  114 1    
    93   47   48 2    
    94   47   49 am   BACKBONE|DICT|INTERRES
    95   49   50 1    
    96   49  115 1    
    97   50   51 1    
    98   50   52 1    
    99   50  116 1    
   100   51  117 1    
   101   51  118 1    
   102   51  119 1    
   103   52   53 2    
   104   52   54 am   BACKBONE|DICT|INTERRES
   105   54   55 1    
   106   54  120 1    
   107   55   56 1    
   108   55   57 1    
   109   55  121 1    
   110   56  122 1    
   111   56  123 1    
   112   56  124 1    
   113   57   58 2    
   114   57   59 am   BACKBONE|DICT|INTERRES
   115   59   60 1    
   116   59  125 1    
   117   60   61 1    
   118   60   62 1    
   119   60  126 1    
   120   61  127 1    
   121   61  128 1    
   122   61  129 1    
   123   62   63 2    
   124   62   64 am   BACKBONE|DICT|INTERRES
   125   64   65 1    
   126   64  130 1    
   127   65   66 1    
   128   65   69 1    
   129   65  131 1    
   130   66   67 am   BACKBONE|DICT|INTERRES
   131   66   68 2    
   132   67  132 1    
   133   67  133 1    
   134   69   70 1    
   135   69  134 1    
   136   69  135 1    
   137   70   71 1    
   138   71  136 1    
   139   71  137 1    
@<TRIPOS>SUBSTRUCTURE
     1 UNK         1 GROUP             0       ****    0 ROOT    
