@<TRIPOS>MOLECULE
3R136
137   139    1
SMALL
USER_CHARGES


@<TRIPOS>ATOM
      1 CA         25.3141   27.0743    4.1908 C.3       0 UNK        -0.1979 
      2 C          26.0267   25.7412    4.3621 C.2       0 UNK         0.4864 
      3 O          25.5972   24.9247    5.1777 O.2       0 UNK        -0.5359 
      4 N          27.1062   25.5178    3.6019 N.am      1 UNK        -0.4318 
      5 CA         27.8419   24.2522    3.5613 C.3       1 UNK         0.0824 
      6 C6         29.3496   24.4600    3.2698 C.3       12 UNK        -0.0944 
      7 S7         30.3360   22.9707    3.6557 S.3       12 UNK        -0.2672 
      8 C8         31.0085   22.5083    2.0223 C.3       12 UNK         0.0333 
      9 C9         32.0109   23.5366    1.5156 C.ar      12 UNK        -0.0807 
     10 C10        33.1625   23.8117    2.2565 C.ar      12 UNK        -0.0894 
     11 C11        34.0391   24.8237    1.8591 C.ar      12 UNK        -0.0804 
     12 C12        33.7693   25.5444    0.6923 C.ar      12 UNK        -0.0824 
     13 C13        32.6375   25.2641   -0.0803 C.ar      12 UNK        -0.0762 
     14 C14        31.7740   24.2372    0.3292 C.ar      12 UNK        -0.0782 
     15 C15        32.3787   26.1134   -1.3298 C.3       12 UNK         0.0230 
     16 S16        30.6328   26.2331   -1.8653 S.3       12 UNK        -0.2608 
     17 C17        29.7938   26.6842   -0.3102 C.3       12 UNK        -0.0989 
     18 CA         28.8414   27.8941   -0.4265 C.3       5 UNK         0.0716 
     19 N          27.7953   27.7101   -1.4339 N.am      5 UNK        -0.4135 
     20 C          27.0861   28.7181   -1.9632 C.2       4 UNK         0.5031 
     21 O          27.2432   29.8954   -1.6337 O.2       4 UNK        -0.5229 
     22 CA         26.0555   28.4020   -3.0647 C.3       4 UNK         0.0329 
     23 CB         26.5180   28.9853   -4.4114 C.3       4 UNK        -0.2001 
     24 N          25.8001   26.9727   -3.2417 N.am      4 UNK        -0.4303 
     25 C          24.9046   26.2598   -2.5479 C.2       3 UNK         0.5044 
     26 O          24.1688   26.7370   -1.6825 O.2       3 UNK        -0.5152 
     27 CA         24.8175   24.7494   -2.8568 C.3       3 UNK         0.0319 
     28 CB         25.6341   24.3056   -4.0931 C.3       3 UNK        -0.2001 
     29 N          25.1818   23.9290   -1.6954 N.am      3 UNK        -0.4354 
     30 C          26.3106   24.0239   -0.9793 C.2       2 UNK         0.4964 
     31 O          27.2134   24.8312   -1.2101 O.2       2 UNK        -0.5047 
     32 CA         26.4806   23.0334    0.1731 C.3       2 UNK         0.0288 
     33 CB         27.3687   21.8519   -0.2654 C.3       2 UNK        -0.2113 
     34 N          27.0866   23.7504    1.2893 N.am      2 UNK        -0.4145 
     35 C          27.1722   23.3061    2.5491 C.2       1 UNK         0.5006 
     36 O          26.7292   22.2196    2.9267 O.2       1 UNK        -0.5103 
     37 C          28.2068   28.1572    0.9474 C.2       5 UNK         0.5055 
     38 O          27.5252   27.2750    1.4768 O.2       5 UNK        -0.5220 
     39 N          28.4870   29.3315    1.5210 N.am      6 UNK        -0.4450 
     40 CA         28.1790   29.6651    2.9107 C.3       6 UNK         0.0367 
     41 CB         28.3549   31.1791    3.1052 C.3       6 UNK        -0.1929 
     42 C          29.0682   28.8762    3.8907 C.2       6 UNK         0.5070 
     43 O          30.1670   28.4522    3.5285 O.2       6 UNK        -0.5237 
     44 N          28.5848   28.7138    5.1280 N.am      7 UNK        -0.4739 
     45 CA         29.2965   28.0109    6.2032 C.3       7 UNK         0.0276 
     46 CB         28.2842   27.5994    7.2845 C.3       7 UNK        -0.1927 
     47 C          30.4501   28.8266    6.8215 C.2       7 UNK         0.5013 
     48 O          31.2803   28.2528    7.5267 O.2       7 UNK        -0.5193 
     49 N          30.4766   30.1370    6.5571 N.am      8 UNK        -0.4253 
     50 CA         31.5146   31.0822    6.9542 C.3       8 UNK         0.0242 
     51 CB         30.9903   31.9540    8.1070 C.3       8 UNK        -0.2000 
     52 C          31.8649   31.9419    5.7340 C.2       8 UNK         0.4948 
     53 O          31.0676   32.0180    4.7956 O.2       8 UNK        -0.5275 
     54 N          33.0516   32.5631    5.7550 N.am      9 UNK        -0.4246 
     55 CA         33.6589   33.4102    4.7135 C.3       9 UNK         0.0261 
     56 CB         32.7913   34.6433    4.3897 C.3       9 UNK        -0.1959 
     57 C          34.0483   32.6409    3.4375 C.2       9 UNK         0.5033 
     58 O          35.2020   32.7210    3.0148 O.2       9 UNK        -0.5390 
     59 N          33.1044   31.8752    2.8754 N.am      10 UNK        -0.4215 
     60 CA         33.3361   30.9009    1.8029 C.3       10 UNK         0.0240 
     61 CB         31.9966   30.5614    1.1296 C.3       10 UNK        -0.1982 
     62 C          34.0285   29.6185    2.3071 C.2       10 UNK         0.4970 
     63 O          34.5804   28.8740    1.4967 O.2       10 UNK        -0.4916 
     64 N          33.9978   29.3966    3.6249 N.am      11 UNK        -0.4279 
     65 CA         34.6609   28.3125    4.3485 C.3       11 UNK         0.1003 
     66 C          35.0309   28.7755    5.7857 C.2       11 UNK         0.5709 
     67 N          35.6783   27.9268    6.5701 N.am      11 UNK        -0.7358 
     68 O          34.7497   29.9017    6.1951 O.2       11 UNK        -0.4999 
     69 C69        33.8275   27.0018    4.3020 C.3       12 UNK        -0.0954 
     70 S70        34.8616   25.5045    4.4429 S.3       12 UNK        -0.2268 
     71 C71        35.2663   25.1559    2.6986 C.3       12 UNK         0.0203 
     72 H72        24.2344   26.9273    4.2008 H         1 UNK         0.0888 
     73 H73        25.5732   27.5543    3.2482 H         1 UNK         0.0888 
     74 H74        25.5730   27.7474    5.0071 H         1 UNK         0.0888 
     75 H75        27.3632   26.2105    2.8986 H         1 UNK         0.3017 
     76 H76        27.7660   23.7830    4.5451 H         1 UNK         0.0873 
     77 H77        29.5209   24.7806    2.2417 H         1 UNK         0.0745 
     78 H78        29.7362   25.2673    3.8941 H         1 UNK         0.0745 
     79 H79        31.5034   21.5397    2.1037 H         1 UNK         0.0705 
     80 H80        30.1842   22.3777    1.3193 H         1 UNK         0.0705 
     81 H81        33.3533   23.2658    3.1705 H         1 UNK         0.1334 
     82 H82        34.4379   26.3401    0.3914 H         1 UNK         0.1417 
     83 H83        30.8941   24.0041   -0.2535 H         1 UNK         0.1562 
     84 H84        32.9671   25.7086   -2.1540 H         1 UNK         0.0748 
     85 H85        32.7420   27.1287   -1.1610 H         1 UNK         0.0748 
     86 H86        30.5449   26.8941    0.4545 H         1 UNK         0.0940 
     87 H87        29.2562   25.8013    0.0363 H         1 UNK         0.0940 
     88 H88        29.4435   28.7593   -0.7134 H         1 UNK         0.0703 
     89 H89        27.5771   26.7483   -1.6746 H         1 UNK         0.3081 
     90 H90        25.1238   28.8988   -2.7852 H         1 UNK         0.0719 
     91 H91        27.4557   28.5386   -4.7446 H         1 UNK         0.0809 
     92 H92        25.7727   28.8247   -5.1907 H         1 UNK         0.0809 
     93 H93        26.6786   30.0619   -4.3382 H         1 UNK         0.0809 
     94 H94        26.3778   26.4877   -3.9134 H         1 UNK         0.2990 
     95 H95        23.7666   24.5448   -3.0662 H         1 UNK         0.0690 
     96 H96        25.4653   23.2507   -4.3102 H         1 UNK         0.0788 
     97 H97        26.7073   24.4393   -3.9513 H         1 UNK         0.0788 
     98 H98        25.3394   24.8610   -4.9846 H         1 UNK         0.0788 
     99 H99        24.4902   23.2488   -1.4121 H         1 UNK         0.2993 
    100 H100       25.5006   22.6644    0.4827 H         1 UNK         0.0949 
    101 H101       26.9333   21.3337   -1.1207 H         1 UNK         0.0767 
    102 H102       28.3643   22.1869   -0.5591 H         1 UNK         0.0767 
    103 H103       27.4846   21.1161    0.5303 H         1 UNK         0.0767 
    104 H104       27.4258   24.6753    1.0538 H         1 UNK         0.3013 
    105 H105       29.0550   29.9941    1.0150 H         1 UNK         0.3121 
    106 H106       27.1359   29.4088    3.1044 H         1 UNK         0.0774 
    107 H107       27.6624   31.7407    2.4782 H         1 UNK         0.0815 
    108 H108       29.3655   31.5030    2.8559 H         1 UNK         0.0815 
    109 H109       28.1646   31.4737    4.1379 H         1 UNK         0.0815 
    110 H110       27.6872   29.1123    5.3641 H         1 UNK         0.2987 
    111 H111       29.7370   27.1017    5.7877 H         1 UNK         0.0949 
    112 H112       28.7749   27.0518    8.0902 H         1 UNK         0.0806 
    113 H113       27.5118   26.9463    6.8786 H         1 UNK         0.0806 
    114 H114       27.7948   28.4653    7.7314 H         1 UNK         0.0806 
    115 H115       29.8097   30.5059    5.8926 H         1 UNK         0.3010 
    116 H116       32.4102   30.5482    7.2768 H         1 UNK         0.0829 
    117 H117       30.7216   31.3456    8.9707 H         1 UNK         0.0813 
    118 H118       31.7465   32.6675    8.4365 H         1 UNK         0.0813 
    119 H119       30.1084   32.5243    7.8126 H         1 UNK         0.0813 
    120 H120       33.6505   32.3850    6.5509 H         1 UNK         0.3038 
    121 H121       34.5894   33.7791    5.1483 H         1 UNK         0.0769 
    122 H122       31.8435   34.3729    3.9238 H         1 UNK         0.0811 
    123 H123       33.3097   35.3099    3.6993 H         1 UNK         0.0811 
    124 H124       32.5696   35.2177    5.2891 H         1 UNK         0.0811 
    125 H125       32.1889   31.8746    3.3232 H         1 UNK         0.3204 
    126 H126       33.9903   31.3552    1.0558 H         1 UNK         0.0748 
    127 H127       31.5229   31.4516    0.7156 H         1 UNK         0.0771 
    128 H128       32.1376   29.8554    0.3098 H         1 UNK         0.0771 
    129 H129       31.3032   30.1065    1.8355 H         1 UNK         0.0771 
    130 H130       33.5703   30.0872    4.2246 H         1 UNK         0.2980 
    131 H131       35.6140   28.1462    3.8431 H         1 UNK         0.0545 
    132 H132       35.8891   26.9941    6.2482 H         1 UNK         0.3459 
    133 H133       35.9297   28.2112    7.5033 H         1 UNK         0.3459 
    134 H134       33.0761   26.9900    5.0938 H         1 UNK         0.0616 
    135 H135       33.2604   26.9394    3.3723 H         1 UNK         0.0616 
    136 H136       35.7997   26.0141    2.2865 H         1 UNK         0.0634 
    137 H137       35.9574   24.3131    2.6600 H         1 UNK         0.0634 
@<TRIPOS>BOND
     1    1    2 1    
     2    1   72 1    
     3    1   73 1    
     4    1   74 1    
     5    2    3 2    
     6    2    4 am   BACKBONE|DICT|INTERRES
     7    4    5 1    
     8    4   75 1    
     9    5    6 1    
    10    5   35 1    
    11    5   76 1    
    12    6    7 1    
    13    6   77 1    
    14    6   78 1    
    15    7    8 1    
    16    8    9 1    
    17    8   79 1    
    18    8   80 1    
    19    9   10 ar   
    20    9   14 ar   
    21   10   11 ar   
    22   10   81 1    
    23   11   12 ar   
    24   11   71 1    
    25   12   13 ar   
    26   12   82 1    
    27   13   14 ar   
    28   13   15 1    
    29   14   83 1    
    30   15   16 1    
    31   15   84 1    
    32   15   85 1    
    33   16   17 1    
    34   17   18 1    
    35   17   86 1    
    36   17   87 1    
    37   18   19 1    
    38   18   37 1    
    39   18   88 1    
    40   19   20 am   BACKBONE|DICT|INTERRES
    41   19   89 1    
    42   20   21 2    
    43   20   22 1    
    44   22   23 1    
    45   22   24 1    
    46   22   90 1    
    47   23   91 1    
    48   23   92 1    
    49   23   93 1    
    50   24   25 am   BACKBONE|DICT|INTERRES
    51   24   94 1    
    52   25   26 2    
    53   25   27 1    
    54   27   28 1    
    55   27   29 1    
    56   27   95 1    
    57   28   96 1    
    58   28   97 1    
    59   28   98 1    
    60   29   30 am   BACKBONE|DICT|INTERRES
    61   29   99 1    
    62   30   31 2    
    63   30   32 1    
    64   32   33 1    
    65   32   34 1    
    66   32  100 1    
    67   33  101 1    
    68   33  102 1    
    69   33  103 1    
    70   34   35 am   BACKBONE|DICT|INTERRES
    71   34  104 1    
    72   35   36 2    
    73   37   38 2    
    74   37   39 am   BACKBONE|DICT|INTERRES
    75   39   40 1    
    76   39  105 1    
    77   40   41 1    
    78   40   42 1    
    79   40  106 1    
    80   41  107 1    
    81   41  108 1    
    82   41  109 1    
    83   42   43 2    
    84   42   44 am   BACKBONE|DICT|INTERRES
    85   44   45 1    
    86   44  110 1    
    87   45   46 1    
    88   45   47 1    
    89   45  111 1    
    90   46  112 1    
    91   46  113 1    
    92   46  114 1    
    93   47   48 2    
    94   47   49 am   BACKBONE|DICT|INTERRES
    95   49   50 1    
    96   49  115 1    
    97   50   51 1    
    98   50   52 1    
    99   50  116 1    
   100   51  117 1    
   101   51  118 1    
   102   51  119 1    
   103   52   53 2    
   104   52   54 am   BACKBONE|DICT|INTERRES
   105   54   55 1    
   106   54  120 1    
   107   55   56 1    
   108   55   57 1    
   109   55  121 1    
   110   56  122 1    
   111   56  123 1    
   112   56  124 1    
   113   57   58 2    
   114   57   59 am   BACKBONE|DICT|INTERRES
   115   59   60 1    
   116   59  125 1    
   117   60   61 1    
   118   60   62 1    
   119   60  126 1    
   120   61  127 1    
   121   61  128 1    
   122   61  129 1    
   123   62   63 2    
   124   62   64 am   BACKBONE|DICT|INTERRES
   125   64   65 1    
   126   64  130 1    
   127   65   66 1    
   128   65   69 1    
   129   65  131 1    
   130   66   67 am   BACKBONE|DICT|INTERRES
   131   66   68 2    
   132   67  132 1    
   133   67  133 1    
   134   69   70 1    
   135   69  134 1    
   136   69  135 1    
   137   70   71 1    
   138   71  136 1    
   139   71  137 1    
@<TRIPOS>SUBSTRUCTURE
     1 UNK         1 GROUP             0       ****    0 ROOT    
