@<TRIPOS>MOLECULE
3R136
137   139    1
SMALL
USER_CHARGES


@<TRIPOS>ATOM
      1 CA         29.1889   27.2177   -3.1318 C.3       0 UNK        -0.1979 
      2 C          29.6640   26.0351   -2.2995 C.2       0 UNK         0.4864 
      3 O          30.2708   25.1147   -2.8494 O.2       0 UNK        -0.5359 
      4 N          29.3834   26.0721   -0.9891 N.am      1 UNK        -0.4318 
      5 CA         29.6458   25.0433    0.0290 C.3       1 UNK         0.0824 
      6 C6         31.1243   24.5595    0.0933 C.3       12 UNK        -0.0944 
      7 S7         32.3217   25.9261    0.2921 S.3       12 UNK        -0.2672 
      8 C8         32.8246   25.7479    2.0301 C.3       12 UNK         0.0333 
      9 C9         31.7654   26.2764    2.9845 C.ar      12 UNK        -0.0807 
     10 C10        31.7365   27.6337    3.3133 C.ar      12 UNK        -0.0894 
     11 C11        30.8244   28.1208    4.2534 C.ar      12 UNK        -0.0804 
     12 C12        29.9006   27.2455    4.8304 C.ar      12 UNK        -0.0824 
     13 C13        29.8974   25.8904    4.4839 C.ar      12 UNK        -0.0762 
     14 C14        30.8421   25.4085    3.5731 C.ar      12 UNK        -0.0782 
     15 C15        28.8857   24.9394    5.1030 C.3       12 UNK         0.0230 
     16 S16        27.4695   24.6623    3.9936 S.3       12 UNK        -0.2608 
     17 C17        26.6262   26.2774    4.0548 C.3       12 UNK        -0.0989 
     18 CA         26.8197   27.0788    2.7436 C.3       5 UNK         0.0716 
     19 N          26.0641   26.4947    1.6301 N.am      5 UNK        -0.4135 
     20 C          26.2291   26.8187    0.3415 C.2       4 UNK         0.5031 
     21 O          27.1489   27.5327   -0.0645 O.2       4 UNK        -0.5229 
     22 CA         25.2116   26.2350   -0.6505 C.3       4 UNK         0.0329 
     23 CB         25.5162   26.6212   -2.1102 C.3       4 UNK        -0.2001 
     24 N          25.1834   24.7773   -0.5486 N.am      4 UNK        -0.4303 
     25 C          24.1141   24.0391   -0.2210 C.2       3 UNK         0.5044 
     26 O          23.0224   24.5170    0.0890 O.2       3 UNK        -0.5152 
     27 CA         24.2752   22.5067   -0.2502 C.3       3 UNK         0.0319 
     28 CB         23.7307   21.9366   -1.5699 C.3       3 UNK        -0.2001 
     29 N          25.6638   22.0746   -0.0808 N.am      3 UNK        -0.4354 
     30 C          26.3273   22.0973    1.0819 C.2       2 UNK         0.4964 
     31 O          25.8021   22.3795    2.1579 O.2       2 UNK        -0.5047 
     32 CA         27.8306   21.7628    1.0384 C.3       2 UNK         0.0288 
     33 CB         28.1948   20.7135   -0.0366 C.3       2 UNK        -0.2113 
     34 N          28.6695   22.9628    0.9044 N.am      2 UNK        -0.4145 
     35 C          28.6475   23.8677   -0.0880 C.2       1 UNK         0.5006 
     36 O          27.8625   23.8075   -1.0395 O.2       1 UNK        -0.5103 
     37 C          26.4027   28.5531    2.9188 C.2       5 UNK         0.5055 
     38 O          25.3884   28.8285    3.5633 O.2       5 UNK        -0.5220 
     39 N          27.1650   29.4623    2.3060 N.am      6 UNK        -0.4450 
     40 CA         26.9251   30.8999    2.2528 C.3       6 UNK         0.0367 
     41 CB         25.8095   31.2055    1.2325 C.3       6 UNK        -0.1929 
     42 C          28.2366   31.5966    1.8670 C.2       6 UNK         0.5070 
     43 O          29.1957   30.9213    1.4825 O.2       6 UNK        -0.5237 
     44 N          28.2427   32.9335    1.9642 N.am      7 UNK        -0.4739 
     45 CA         29.3797   33.8290    1.7134 C.3       7 UNK         0.0276 
     46 CB         29.7852   33.8069    0.2203 C.3       7 UNK        -0.1927 
     47 C          30.5346   33.5562    2.6988 C.2       7 UNK         0.5013 
     48 O          30.2743   33.4461    3.8993 O.2       7 UNK        -0.5193 
     49 N          31.7714   33.4660    2.1988 N.am      8 UNK        -0.4253 
     50 CA         32.9624   33.1339    2.9715 C.3       8 UNK         0.0242 
     51 CB         33.6836   34.4214    3.4064 C.3       8 UNK        -0.2000 
     52 C          33.8707   32.2540    2.1085 C.2       8 UNK         0.4948 
     53 O          34.0432   32.5430    0.9218 O.2       8 UNK        -0.5275 
     54 N          34.4431   31.2229    2.7333 N.am      9 UNK        -0.4246 
     55 CA         35.4054   30.2611    2.2016 C.3       9 UNK         0.0261 
     56 CB         34.8204   29.4368    1.0283 C.3       9 UNK        -0.1959 
     57 C          35.8546   29.4087    3.4006 C.2       9 UNK         0.5033 
     58 O          35.9561   29.9421    4.5096 O.2       9 UNK        -0.5390 
     59 N          36.0795   28.1049    3.1969 N.am      10 UNK        -0.4215 
     60 CA         36.4007   27.1294    4.2440 C.3       10 UNK         0.0240 
     61 CB         37.0823   25.9109    3.5923 C.3       10 UNK        -0.1982 
     62 C          35.1542   26.7408    5.0685 C.2       10 UNK         0.4970 
     63 O          34.7337   25.5832    5.0371 O.2       10 UNK        -0.4916 
     64 N          34.5721   27.7234    5.7669 N.am      11 UNK        -0.4279 
     65 CA         33.3354   27.5861    6.5564 C.3       11 UNK         0.1003 
     66 C          33.4819   26.7733    7.8757 C.2       11 UNK         0.5709 
     67 N          34.6875   26.4643    8.3392 N.am      11 UNK        -0.7358 
     68 O          32.4806   26.4126    8.4897 O.2       11 UNK        -0.4999 
     69 C69        32.6439   28.9549    6.8264 C.3       12 UNK        -0.0954 
     70 S70        32.4973   30.0397    5.3630 S.3       12 UNK        -0.2268 
     71 C71        30.8712   29.5821    4.6764 C.3       12 UNK         0.0203 
     72 H72        30.0419   27.7341   -3.5710 H         1 UNK         0.0888 
     73 H73        28.5441   26.8735   -3.9399 H         1 UNK         0.0888 
     74 H74        28.6276   27.9365   -2.5342 H         1 UNK         0.0888 
     75 H75        28.7905   26.8291   -0.6568 H         1 UNK         0.3017 
     76 H76        29.4175   25.5286    0.9792 H         1 UNK         0.0873 
     77 H77        31.3902   24.0093   -0.8102 H         1 UNK         0.0745 
     78 H78        31.2663   23.8515    0.9103 H         1 UNK         0.0745 
     79 H79        33.7537   26.2988    2.1807 H         1 UNK         0.0705 
     80 H80        33.0598   24.7052    2.2490 H         1 UNK         0.0705 
     81 H81        32.4543   28.3105    2.8756 H         1 UNK         0.1334 
     82 H82        29.1931   27.6163    5.5590 H         1 UNK         0.1417 
     83 H83        30.8615   24.3557    3.3296 H         1 UNK         0.1562 
     84 H84        28.5344   25.3156    6.0652 H         1 UNK         0.0748 
     85 H85        29.3632   23.9806    5.3104 H         1 UNK         0.0748 
     86 H86        26.9947   26.8384    4.9150 H         1 UNK         0.0940 
     87 H87        25.5658   26.1082    4.2513 H         1 UNK         0.0940 
     88 H88        27.8820   27.0593    2.4887 H         1 UNK         0.0703 
     89 H89        25.2965   25.8892    1.8818 H         1 UNK         0.3081 
     90 H90        24.2419   26.6625   -0.3876 H         1 UNK         0.0719 
     91 H91        24.7388   26.2600   -2.7834 H         1 UNK         0.0809 
     92 H92        25.5705   27.7041   -2.2301 H         1 UNK         0.0809 
     93 H93        26.4660   26.2033   -2.4446 H         1 UNK         0.0809 
     94 H94        26.0601   24.3042   -0.7591 H         1 UNK         0.2990 
     95 H95        23.6809   22.0964    0.5692 H         1 UNK         0.0690 
     96 H96        22.6861   22.2163   -1.7141 H         1 UNK         0.0788 
     97 H97        23.7773   20.8475   -1.5810 H         1 UNK         0.0788 
     98 H98        24.2891   22.3066   -2.4310 H         1 UNK         0.0788 
     99 H99        26.1863   21.8681   -0.9208 H         1 UNK         0.2993 
    100 H100       28.0694   21.3272    2.0103 H         1 UNK         0.0949 
    101 H101       28.0821   21.0944   -1.0519 H         1 UNK         0.0767 
    102 H102       29.2288   20.3867    0.0752 H         1 UNK         0.0767 
    103 H103       27.5674   19.8257    0.0541 H         1 UNK         0.0767 
    104 H104       29.2973   23.1233    1.6785 H         1 UNK         0.3013 
    105 H105       27.9912   29.1725    1.7935 H         1 UNK         0.3121 
    106 H106       26.6298   31.2499    3.2442 H         1 UNK         0.0774 
    107 H107       26.0762   30.8565    0.2339 H         1 UNK         0.0815 
    108 H108       25.6141   32.2761    1.1638 H         1 UNK         0.0815 
    109 H109       24.8703   30.7280    1.5119 H         1 UNK         0.0815 
    110 H110       27.4106   33.3856    2.3178 H         1 UNK         0.2987 
    111 H111       29.0301   34.8374    1.9405 H         1 UNK         0.0949 
    112 H112       30.2077   32.8472   -0.0798 H         1 UNK         0.0806 
    113 H113       28.9247   34.0004   -0.4204 H         1 UNK         0.0806 
    114 H114       30.5225   34.5794   -0.0016 H         1 UNK         0.0806 
    115 H115       31.9120   33.5131    1.1978 H         1 UNK         0.3010 
    116 H116       32.6760   32.5727    3.8629 H         1 UNK         0.0829 
    117 H117       33.0444   35.0388    4.0378 H         1 UNK         0.0813 
    118 H118       34.5817   34.1905    3.9807 H         1 UNK         0.0813 
    119 H119       33.9883   35.0220    2.5483 H         1 UNK         0.0813 
    120 H120       34.2770   31.0988    3.7263 H         1 UNK         0.3038 
    121 H121       36.2782   30.8129    1.8481 H         1 UNK         0.0769 
    122 H122       33.9588   28.8434    1.3296 H         1 UNK         0.0811 
    123 H123       35.5629   28.7576    0.6085 H         1 UNK         0.0811 
    124 H124       34.5008   30.0771    0.2068 H         1 UNK         0.0811 
    125 H125       35.9555   27.7392    2.2642 H         1 UNK         0.3204 
    126 H126       37.1180   27.5786    4.9345 H         1 UNK         0.0748 
    127 H127       37.9940   26.1992    3.0687 H         1 UNK         0.0771 
    128 H128       37.3636   25.1723    4.3443 H         1 UNK         0.0771 
    129 H129       36.4264   25.4137    2.8762 H         1 UNK         0.0771 
    130 H130       34.9617   28.6573    5.6929 H         1 UNK         0.2980 
    131 H131       32.6511   26.9943    5.9489 H         1 UNK         0.0545 
    132 H132       35.5145   26.7557    7.8440 H         1 UNK         0.3459 
    133 H133       34.7680   25.9349    9.1928 H         1 UNK         0.3459 
    134 H134       31.6477   28.8020    7.2456 H         1 UNK         0.0616 
    135 H135       33.2051   29.5114    7.5790 H         1 UNK         0.0616 
    136 H136       30.6666   30.2111    3.8089 H         1 UNK         0.0634 
    137 H137       30.0975   29.8064    5.4121 H         1 UNK         0.0634 
@<TRIPOS>BOND
     1    1    2 1    
     2    1   72 1    
     3    1   73 1    
     4    1   74 1    
     5    2    3 2    
     6    2    4 am   BACKBONE|DICT|INTERRES
     7    4    5 1    
     8    4   75 1    
     9    5    6 1    
    10    5   35 1    
    11    5   76 1    
    12    6    7 1    
    13    6   77 1    
    14    6   78 1    
    15    7    8 1    
    16    8    9 1    
    17    8   79 1    
    18    8   80 1    
    19    9   10 ar   
    20    9   14 ar   
    21   10   11 ar   
    22   10   81 1    
    23   11   12 ar   
    24   11   71 1    
    25   12   13 ar   
    26   12   82 1    
    27   13   14 ar   
    28   13   15 1    
    29   14   83 1    
    30   15   16 1    
    31   15   84 1    
    32   15   85 1    
    33   16   17 1    
    34   17   18 1    
    35   17   86 1    
    36   17   87 1    
    37   18   19 1    
    38   18   37 1    
    39   18   88 1    
    40   19   20 am   BACKBONE|DICT|INTERRES
    41   19   89 1    
    42   20   21 2    
    43   20   22 1    
    44   22   23 1    
    45   22   24 1    
    46   22   90 1    
    47   23   91 1    
    48   23   92 1    
    49   23   93 1    
    50   24   25 am   BACKBONE|DICT|INTERRES
    51   24   94 1    
    52   25   26 2    
    53   25   27 1    
    54   27   28 1    
    55   27   29 1    
    56   27   95 1    
    57   28   96 1    
    58   28   97 1    
    59   28   98 1    
    60   29   30 am   BACKBONE|DICT|INTERRES
    61   29   99 1    
    62   30   31 2    
    63   30   32 1    
    64   32   33 1    
    65   32   34 1    
    66   32  100 1    
    67   33  101 1    
    68   33  102 1    
    69   33  103 1    
    70   34   35 am   BACKBONE|DICT|INTERRES
    71   34  104 1    
    72   35   36 2    
    73   37   38 2    
    74   37   39 am   BACKBONE|DICT|INTERRES
    75   39   40 1    
    76   39  105 1    
    77   40   41 1    
    78   40   42 1    
    79   40  106 1    
    80   41  107 1    
    81   41  108 1    
    82   41  109 1    
    83   42   43 2    
    84   42   44 am   BACKBONE|DICT|INTERRES
    85   44   45 1    
    86   44  110 1    
    87   45   46 1    
    88   45   47 1    
    89   45  111 1    
    90   46  112 1    
    91   46  113 1    
    92   46  114 1    
    93   47   48 2    
    94   47   49 am   BACKBONE|DICT|INTERRES
    95   49   50 1    
    96   49  115 1    
    97   50   51 1    
    98   50   52 1    
    99   50  116 1    
   100   51  117 1    
   101   51  118 1    
   102   51  119 1    
   103   52   53 2    
   104   52   54 am   BACKBONE|DICT|INTERRES
   105   54   55 1    
   106   54  120 1    
   107   55   56 1    
   108   55   57 1    
   109   55  121 1    
   110   56  122 1    
   111   56  123 1    
   112   56  124 1    
   113   57   58 2    
   114   57   59 am   BACKBONE|DICT|INTERRES
   115   59   60 1    
   116   59  125 1    
   117   60   61 1    
   118   60   62 1    
   119   60  126 1    
   120   61  127 1    
   121   61  128 1    
   122   61  129 1    
   123   62   63 2    
   124   62   64 am   BACKBONE|DICT|INTERRES
   125   64   65 1    
   126   64  130 1    
   127   65   66 1    
   128   65   69 1    
   129   65  131 1    
   130   66   67 am   BACKBONE|DICT|INTERRES
   131   66   68 2    
   132   67  132 1    
   133   67  133 1    
   134   69   70 1    
   135   69  134 1    
   136   69  135 1    
   137   70   71 1    
   138   71  136 1    
   139   71  137 1    
@<TRIPOS>SUBSTRUCTURE
     1 UNK         1 GROUP             0       ****    0 ROOT    
