@<TRIPOS>MOLECULE
3R136
137   139    1
SMALL
USER_CHARGES


@<TRIPOS>ATOM
      1 CA         31.5891   21.7338   -3.3884 C.3       0 UNK        -0.1979 
      2 C          30.9032   22.0222   -2.0611 C.2       0 UNK         0.4864 
      3 O          31.0329   21.2321   -1.1255 O.2       0 UNK        -0.5359 
      4 N          30.1722   23.1447   -1.9799 N.am      1 UNK        -0.4318 
      5 CA         29.4345   23.6182   -0.7984 C.3       1 UNK         0.0824 
      6 C6         30.3745   23.9650    0.3902 C.3       12 UNK        -0.0944 
      7 S7         29.7279   25.3127    1.4336 S.3       12 UNK        -0.2672 
      8 C8         29.7035   24.4989    3.0619 C.3       12 UNK         0.0333 
      9 C9         29.2632   25.4688    4.1461 C.ar      12 UNK        -0.0807 
     10 C10        30.1991   26.0451    5.0123 C.ar      12 UNK        -0.0894 
     11 C11        29.7937   26.9626    5.9908 C.ar      12 UNK        -0.0804 
     12 C12        28.4393   27.3017    6.0804 C.ar      12 UNK        -0.0824 
     13 C13        27.4925   26.7293    5.2259 C.ar      12 UNK        -0.0762 
     14 C14        27.9108   25.7925    4.2771 C.ar      12 UNK        -0.0782 
     15 C15        26.0239   27.1310    5.3469 C.3       12 UNK         0.0230 
     16 S16        25.2103   27.4912    3.7499 S.3       12 UNK        -0.2608 
     17 C17        26.3609   28.6772    2.9703 C.3       12 UNK        -0.0989 
     18 CA         26.9774   28.0854    1.6719 C.3       5 UNK         0.0716 
     19 N          25.9869   27.8081    0.6237 N.am      5 UNK        -0.4135 
     20 C          25.2393   28.7022   -0.0369 C.2       4 UNK         0.5031 
     21 O          25.2659   29.9132    0.1866 O.2       4 UNK        -0.5229 
     22 CA         24.2869   28.1833   -1.1344 C.3       4 UNK         0.0329 
     23 CB         24.7840   28.6121   -2.5307 C.3       4 UNK        -0.2001 
     24 N          23.9775   26.7425   -1.1100 N.am      4 UNK        -0.4303 
     25 C          24.7985   25.7089   -1.3398 C.2       3 UNK         0.5044 
     26 O          26.0173   25.8204   -1.5078 O.2       3 UNK        -0.5152 
     27 CA         24.1468   24.3191   -1.3730 C.3       3 UNK         0.0319 
     28 CB         23.1739   24.1755   -2.5596 C.3       3 UNK        -0.2001 
     29 N          25.2079   23.3271   -1.4851 N.am      3 UNK        -0.4354 
     30 C          25.1579   22.0462   -1.1044 C.2       2 UNK         0.4964 
     31 O          24.1545   21.5101   -0.6327 O.2       2 UNK        -0.5047 
     32 CA         26.4445   21.2168   -1.2850 C.3       2 UNK         0.0288 
     33 CB         26.3245   20.2968   -2.5115 C.3       2 UNK        -0.2113 
     34 N          27.6471   22.0454   -1.4270 N.am      2 UNK        -0.4145 
     35 C          28.2480   22.6960   -0.4185 C.2       1 UNK         0.5006 
     36 O          27.8793   22.5990    0.7533 O.2       1 UNK        -0.5103 
     37 C          28.1621   28.9043    1.1184 C.2       5 UNK         0.5055 
     38 O          28.6043   29.8689    1.7432 O.2       5 UNK        -0.5220 
     39 N          28.6593   28.4959   -0.0589 N.am      6 UNK        -0.4450 
     40 CA         29.7371   29.1554   -0.8030 C.3       6 UNK         0.0367 
     41 CB         29.9444   28.4209   -2.1373 C.3       6 UNK        -0.1929 
     42 C          31.0705   29.2645   -0.0402 C.2       6 UNK         0.5070 
     43 O          31.8162   30.2178   -0.2659 O.2       6 UNK        -0.5237 
     44 N          31.3452   28.3049    0.8533 N.am      7 UNK        -0.4739 
     45 CA         32.5551   28.2676    1.6763 C.3       7 UNK         0.0276 
     46 CB         32.8668   26.8143    2.0682 C.3       7 UNK        -0.1927 
     47 C          32.4879   29.1576    2.9291 C.2       7 UNK         0.5013 
     48 O          33.4956   29.2345    3.6295 O.2       7 UNK        -0.5193 
     49 N          31.3531   29.8240    3.2060 N.am      8 UNK        -0.4253 
     50 CA         31.1282   30.6381    4.4129 C.3       8 UNK         0.0242 
     51 CB         29.7128   31.2331    4.3903 C.3       8 UNK        -0.2000 
     52 C          32.1726   31.7408    4.6733 C.2       8 UNK         0.4948 
     53 O          32.4204   32.0703    5.8333 O.2       8 UNK        -0.5275 
     54 N          32.7963   32.2589    3.6060 N.am      9 UNK        -0.4246 
     55 CA         33.9202   33.1962    3.6739 C.3       9 UNK         0.0261 
     56 CB         34.1552   33.8020    2.2807 C.3       9 UNK        -0.1959 
     57 C          35.2210   32.5652    4.2113 C.2       9 UNK         0.5033 
     58 O          36.0386   33.2863    4.7846 O.2       9 UNK        -0.5390 
     59 N          35.3978   31.2498    4.0215 N.am      10 UNK        -0.4215 
     60 CA         36.5477   30.4797    4.5003 C.3       10 UNK         0.0240 
     61 CB         36.8807   29.3751    3.4829 C.3       10 UNK        -0.1982 
     62 C          36.3034   29.8736    5.8925 C.2       10 UNK         0.4970 
     63 O          37.2781   29.5908    6.5905 O.2       10 UNK        -0.4916 
     64 N          35.0320   29.6899    6.2805 N.am      11 UNK        -0.4279 
     65 CA         34.6201   29.2056    7.6101 C.3       11 UNK         0.1003 
     66 C          35.0251   30.1330    8.7947 C.2       11 UNK         0.5709 
     67 N          35.2624   31.4217    8.5781 N.am      11 UNK        -0.7358 
     68 O          35.1264   29.6709    9.9288 O.2       11 UNK        -0.4999 
     69 C69        33.0994   28.9091    7.6825 C.3       12 UNK        -0.0954 
     70 S70        32.5075   27.6862    6.4684 S.3       12 UNK        -0.2268 
     71 C71        30.7625   27.5869    6.9965 C.3       12 UNK         0.0203 
     72 H72        31.2386   20.7849   -3.7934 H         1 UNK         0.0888 
     73 H73        31.3938   22.5108   -4.1273 H         1 UNK         0.0888 
     74 H74        32.6673   21.6659   -3.2457 H         1 UNK         0.0888 
     75 H75        30.1154   23.7468   -2.7903 H         1 UNK         0.3017 
     76 H76        28.9684   24.5485   -1.1282 H         1 UNK         0.0873 
     77 H77        30.5948   23.0790    0.9887 H         1 UNK         0.0745 
     78 H78        31.3390   24.3095    0.0141 H         1 UNK         0.0745 
     79 H79        30.6960   24.1036    3.2837 H         1 UNK         0.0705 
     80 H80        29.0262   23.6441    3.0332 H         1 UNK         0.0705 
     81 H81        31.2406   25.7705    4.9246 H         1 UNK         0.1334 
     82 H82        28.1183   28.0123    6.8303 H         1 UNK         0.1417 
     83 H83        27.1869   25.3365    3.6151 H         1 UNK         0.1562 
     84 H84        25.9198   28.0108    5.9839 H         1 UNK         0.0748 
     85 H85        25.4802   26.3265    5.8437 H         1 UNK         0.0748 
     86 H86        27.1415   28.9390    3.6857 H         1 UNK         0.0940 
     87 H87        25.8286   29.6067    2.7640 H         1 UNK         0.0940 
     88 H88        27.4077   27.1183    1.9265 H         1 UNK         0.0703 
     89 H89        25.9328   26.8487    0.3060 H         1 UNK         0.3081 
     90 H90        23.3343   28.6862   -0.9602 H         1 UNK         0.0719 
     91 H91        24.0815   28.3173   -3.3103 H         1 UNK         0.0809 
     92 H92        25.7544   28.1762   -2.7703 H         1 UNK         0.0809 
     93 H93        24.8950   29.6957   -2.5898 H         1 UNK         0.0809 
     94 H94        23.0050   26.5277   -0.9349 H         1 UNK         0.2990 
     95 H95        23.6118   24.1705   -0.4326 H         1 UNK         0.0690 
     96 H96        22.7290   23.1807   -2.5901 H         1 UNK         0.0788 
     97 H97        23.6765   24.3445   -3.5129 H         1 UNK         0.0788 
     98 H98        22.3526   24.8895   -2.4915 H         1 UNK         0.0788 
     99 H99        26.0859   23.7132   -1.8085 H         1 UNK         0.2993 
    100 H100       26.5565   20.5917   -0.3962 H         1 UNK         0.0949 
    101 H101       26.2098   20.8663   -3.4349 H         1 UNK         0.0767 
    102 H102       27.2021   19.6583   -2.6159 H         1 UNK         0.0767 
    103 H103       25.4573   19.6406   -2.4236 H         1 UNK         0.0767 
    104 H104       28.0179   22.1562   -2.3596 H         1 UNK         0.3013 
    105 H105       28.2354   27.6922   -0.5002 H         1 UNK         0.3121 
    106 H106       29.4054   30.1731   -1.0192 H         1 UNK         0.0774 
    107 H107       30.7225   28.9026   -2.7312 H         1 UNK         0.0815 
    108 H108       30.2467   27.3840   -1.9838 H         1 UNK         0.0815 
    109 H109       29.0345   28.4215   -2.7380 H         1 UNK         0.0815 
    110 H110       30.6795   27.5543    0.9855 H         1 UNK         0.2987 
    111 H111       33.3926   28.6324    1.0773 H         1 UNK         0.0949 
    112 H112       32.9139   26.1639    1.1947 H         1 UNK         0.0806 
    113 H113       33.8304   26.7452    2.5751 H         1 UNK         0.0806 
    114 H114       32.1179   26.4139    2.7500 H         1 UNK         0.0806 
    115 H115       30.5642   29.7260    2.5758 H         1 UNK         0.3010 
    116 H116       31.1815   29.9580    5.2622 H         1 UNK         0.0829 
    117 H117       28.9569   30.4482    4.3922 H         1 UNK         0.0813 
    118 H118       29.5317   31.8532    5.2695 H         1 UNK         0.0813 
    119 H119       29.5510   31.8560    3.5098 H         1 UNK         0.0813 
    120 H120       32.5233   31.9333    2.6895 H         1 UNK         0.3038 
    121 H121       33.6440   34.0043    4.3549 H         1 UNK         0.0769 
    122 H122       33.2698   34.3264    1.9208 H         1 UNK         0.0811 
    123 H123       34.4165   33.0387    1.5465 H         1 UNK         0.0811 
    124 H124       34.9714   34.5257    2.3028 H         1 UNK         0.0811 
    125 H125       34.6440   30.7005    3.6151 H         1 UNK         0.3204 
    126 H126       37.4170   31.1364    4.5760 H         1 UNK         0.0748 
    127 H127       37.7717   28.8234    3.7859 H         1 UNK         0.0771 
    128 H128       36.0700   28.6522    3.3854 H         1 UNK         0.0771 
    129 H129       37.0789   29.7922    2.4954 H         1 UNK         0.0771 
    130 H130       34.2878   29.8704    5.6201 H         1 UNK         0.2980 
    131 H131       35.1448   28.2623    7.7722 H         1 UNK         0.0545 
    132 H132       35.5263   32.0127    9.3503 H         1 UNK         0.3459 
    133 H133       35.1636   31.8097    7.6533 H         1 UNK         0.3459 
    134 H134       32.8348   28.5353    8.6738 H         1 UNK         0.0616 
    135 H135       32.5328   29.8316    7.5422 H         1 UNK         0.0616 
    136 H136       30.4218   28.5962    7.2334 H         1 UNK         0.0634 
    137 H137       30.7138   27.0184    7.9260 H         1 UNK         0.0634 
@<TRIPOS>BOND
     1    1    2 1    
     2    1   72 1    
     3    1   73 1    
     4    1   74 1    
     5    2    3 2    
     6    2    4 am   BACKBONE|DICT|INTERRES
     7    4    5 1    
     8    4   75 1    
     9    5    6 1    
    10    5   35 1    
    11    5   76 1    
    12    6    7 1    
    13    6   77 1    
    14    6   78 1    
    15    7    8 1    
    16    8    9 1    
    17    8   79 1    
    18    8   80 1    
    19    9   10 ar   
    20    9   14 ar   
    21   10   11 ar   
    22   10   81 1    
    23   11   12 ar   
    24   11   71 1    
    25   12   13 ar   
    26   12   82 1    
    27   13   14 ar   
    28   13   15 1    
    29   14   83 1    
    30   15   16 1    
    31   15   84 1    
    32   15   85 1    
    33   16   17 1    
    34   17   18 1    
    35   17   86 1    
    36   17   87 1    
    37   18   19 1    
    38   18   37 1    
    39   18   88 1    
    40   19   20 am   BACKBONE|DICT|INTERRES
    41   19   89 1    
    42   20   21 2    
    43   20   22 1    
    44   22   23 1    
    45   22   24 1    
    46   22   90 1    
    47   23   91 1    
    48   23   92 1    
    49   23   93 1    
    50   24   25 am   BACKBONE|DICT|INTERRES
    51   24   94 1    
    52   25   26 2    
    53   25   27 1    
    54   27   28 1    
    55   27   29 1    
    56   27   95 1    
    57   28   96 1    
    58   28   97 1    
    59   28   98 1    
    60   29   30 am   BACKBONE|DICT|INTERRES
    61   29   99 1    
    62   30   31 2    
    63   30   32 1    
    64   32   33 1    
    65   32   34 1    
    66   32  100 1    
    67   33  101 1    
    68   33  102 1    
    69   33  103 1    
    70   34   35 am   BACKBONE|DICT|INTERRES
    71   34  104 1    
    72   35   36 2    
    73   37   38 2    
    74   37   39 am   BACKBONE|DICT|INTERRES
    75   39   40 1    
    76   39  105 1    
    77   40   41 1    
    78   40   42 1    
    79   40  106 1    
    80   41  107 1    
    81   41  108 1    
    82   41  109 1    
    83   42   43 2    
    84   42   44 am   BACKBONE|DICT|INTERRES
    85   44   45 1    
    86   44  110 1    
    87   45   46 1    
    88   45   47 1    
    89   45  111 1    
    90   46  112 1    
    91   46  113 1    
    92   46  114 1    
    93   47   48 2    
    94   47   49 am   BACKBONE|DICT|INTERRES
    95   49   50 1    
    96   49  115 1    
    97   50   51 1    
    98   50   52 1    
    99   50  116 1    
   100   51  117 1    
   101   51  118 1    
   102   51  119 1    
   103   52   53 2    
   104   52   54 am   BACKBONE|DICT|INTERRES
   105   54   55 1    
   106   54  120 1    
   107   55   56 1    
   108   55   57 1    
   109   55  121 1    
   110   56  122 1    
   111   56  123 1    
   112   56  124 1    
   113   57   58 2    
   114   57   59 am   BACKBONE|DICT|INTERRES
   115   59   60 1    
   116   59  125 1    
   117   60   61 1    
   118   60   62 1    
   119   60  126 1    
   120   61  127 1    
   121   61  128 1    
   122   61  129 1    
   123   62   63 2    
   124   62   64 am   BACKBONE|DICT|INTERRES
   125   64   65 1    
   126   64  130 1    
   127   65   66 1    
   128   65   69 1    
   129   65  131 1    
   130   66   67 am   BACKBONE|DICT|INTERRES
   131   66   68 2    
   132   67  132 1    
   133   67  133 1    
   134   69   70 1    
   135   69  134 1    
   136   69  135 1    
   137   70   71 1    
   138   71  136 1    
   139   71  137 1    
@<TRIPOS>SUBSTRUCTURE
     1 UNK         1 GROUP             0       ****    0 ROOT    
