@<TRIPOS>MOLECULE
3R136
137   139    1
SMALL
USER_CHARGES


@<TRIPOS>ATOM
      1 CA         30.9345   20.1417   -0.6530 C.3       0 UNK        -0.1979 
      2 C          30.5817   21.6063   -0.8660 C.2       0 UNK         0.4864 
      3 O          30.8699   22.1573   -1.9287 O.2       0 UNK        -0.5359 
      4 N          29.9520   22.2397    0.1330 N.am      1 UNK        -0.4318 
      5 CA         29.5501   23.6525    0.1117 C.3       1 UNK         0.0824 
      6 C6         29.4997   24.2412    1.5406 C.3       12 UNK        -0.0944 
      7 S7         28.1968   23.5328    2.6150 S.3       12 UNK        -0.2672 
      8 C8         28.8876   23.8271    4.2770 C.3       12 UNK         0.0333 
      9 C9         29.3485   25.2675    4.4473 C.ar      12 UNK        -0.0807 
     10 C10        30.7119   25.5732    4.4186 C.ar      12 UNK        -0.0894 
     11 C11        31.1428   26.8992    4.4923 C.ar      12 UNK        -0.0804 
     12 C12        30.1985   27.9244    4.6026 C.ar      12 UNK        -0.0824 
     13 C13        28.8323   27.6300    4.6683 C.ar      12 UNK        -0.0762 
     14 C14        28.4145   26.2966    4.5947 C.ar      12 UNK        -0.0782 
     15 C15        27.8145   28.7489    4.8543 C.3       12 UNK         0.0230 
     16 S16        26.5016   28.7406    3.5895 S.3       12 UNK        -0.2608 
     17 C17        27.3926   29.3156    2.1044 C.3       12 UNK        -0.0989 
     18 CA         27.4967   28.2273    0.9981 C.3       5 UNK         0.0716 
     19 N          26.2156   27.6522    0.5757 N.am      5 UNK        -0.4135 
     20 C          25.1541   28.3076    0.0836 C.2       4 UNK         0.5031 
     21 O          25.1045   29.5300   -0.0608 O.2       4 UNK        -0.5229 
     22 CA         23.9318   27.4693   -0.3423 C.3       4 UNK         0.0329 
     23 CB         23.6535   27.6460   -1.8453 C.3       4 UNK        -0.2001 
     24 N          24.0608   26.0377   -0.0654 N.am      4 UNK        -0.4303 
     25 C          23.9529   25.4372    1.1250 C.2       3 UNK         0.5044 
     26 O          23.6944   26.0386    2.1669 O.2       3 UNK        -0.5152 
     27 CA         24.2021   23.9149    1.1775 C.3       3 UNK         0.0319 
     28 CB         22.8741   23.1371    1.1002 C.3       3 UNK        -0.2001 
     29 N          25.1804   23.4035    0.2000 N.am      3 UNK        -0.4354 
     30 C          25.1074   23.3770   -1.1416 C.2       2 UNK         0.4964 
     31 O          24.1347   23.7885   -1.7752 O.2       2 UNK        -0.5047 
     32 CA         26.3288   22.8334   -1.9110 C.3       2 UNK         0.0288 
     33 CB         26.5203   23.5372   -3.2728 C.3       2 UNK        -0.2113 
     34 N          27.5817   22.8497   -1.1441 N.am      2 UNK        -0.4145 
     35 C          28.2396   23.9178   -0.6634 C.2       1 UNK         0.5006 
     36 O          27.8398   25.0795   -0.7756 O.2       1 UNK        -0.5103 
     37 C          28.2869   28.7054   -0.2349 C.2       5 UNK         0.5055 
     38 O          28.5469   29.9010   -0.3886 O.2       5 UNK        -0.5220 
     39 N          28.6476   27.7508   -1.1062 N.am      6 UNK        -0.4450 
     40 CA         29.5498   27.9662   -2.2429 C.3       6 UNK         0.0367 
     41 CB         29.5391   26.7245   -3.1492 C.3       6 UNK        -0.1929 
     42 C          30.9864   28.3018   -1.7967 C.2       6 UNK         0.5070 
     43 O          31.6820   29.0420   -2.4926 O.2       6 UNK        -0.5237 
     44 N          31.3878   27.7750   -0.6326 N.am      7 UNK        -0.4739 
     45 CA         32.5762   28.1912    0.1078 C.3       7 UNK         0.0276 
     46 CB         33.1063   26.9915    0.9090 C.3       7 UNK        -0.1927 
     47 C          32.1978   29.3518    1.0427 C.2       7 UNK         0.5013 
     48 O          31.1081   29.3316    1.6196 O.2       7 UNK        -0.5193 
     49 N          33.0955   30.3358    1.1789 N.am      8 UNK        -0.4253 
     50 CA         32.8884   31.5359    1.9943 C.3       8 UNK         0.0242 
     51 CB         34.0074   32.5477    1.6970 C.3       8 UNK        -0.2000 
     52 C          32.8457   31.2201    3.4976 C.2       8 UNK         0.4948 
     53 O          33.6478   30.4155    3.9723 O.2       8 UNK        -0.5275 
     54 N          31.9651   31.9174    4.2296 N.am      9 UNK        -0.4246 
     55 CA         31.6972   31.7545    5.6680 C.3       9 UNK         0.0261 
     56 CB         30.4979   32.6389    6.0501 C.3       9 UNK        -0.1959 
     57 C          32.8884   32.0041    6.6181 C.2       9 UNK         0.5033 
     58 O          32.7645   31.7426    7.8151 O.2       9 UNK        -0.5390 
     59 N          34.0213   32.4752    6.0820 N.am      10 UNK        -0.4215 
     60 CA         35.3150   32.5588    6.7614 C.3       10 UNK         0.0240 
     61 CB         36.2437   33.4686    5.9388 C.3       10 UNK        -0.1982 
     62 C          35.9781   31.1853    7.0075 C.2       10 UNK         0.4970 
     63 O          36.9746   31.1395    7.7307 O.2       10 UNK        -0.4916 
     64 N          35.4492   30.1098    6.4018 N.am      11 UNK        -0.4279 
     65 CA         35.8937   28.7176    6.5708 C.3       11 UNK         0.1003 
     66 C          35.9454   28.2170    8.0458 C.2       11 UNK         0.5709 
     67 N          36.8097   27.2538    8.3388 N.am      11 UNK        -0.7358 
     68 O          35.1968   28.6628    8.9141 O.2       11 UNK        -0.4999 
     69 C69        35.0839   27.7524    5.6614 C.3       12 UNK        -0.0954 
     70 S70        33.3017   27.6424    6.0582 S.3       12 UNK        -0.2268 
     71 C71        32.6269   27.2212    4.4247 C.3       12 UNK         0.0203 
     72 H72        30.6153   19.7830    0.3254 H         1 UNK         0.0888 
     73 H73        30.4556   19.5253   -1.4133 H         1 UNK         0.0888 
     74 H74        32.0124   20.0013   -0.7298 H         1 UNK         0.0888 
     75 H75        29.7356   21.7414    0.9858 H         1 UNK         0.3017 
     76 H76        30.3226   24.2058   -0.4273 H         1 UNK         0.0873 
     77 H77        29.3618   25.3231    1.5026 H         1 UNK         0.0745 
     78 H78        30.4698   24.0877    2.0152 H         1 UNK         0.0745 
     79 H79        28.1305   23.5916    5.0262 H         1 UNK         0.0705 
     80 H80        29.7137   23.1347    4.4465 H         1 UNK         0.0705 
     81 H81        31.4385   24.7792    4.3129 H         1 UNK         0.1334 
     82 H82        30.5344   28.9505    4.6419 H         1 UNK         0.1417 
     83 H83        27.3591   26.0614    4.6269 H         1 UNK         0.1562 
     84 H84        28.2997   29.7264    4.8602 H         1 UNK         0.0748 
     85 H85        27.3512   28.6334    5.8350 H         1 UNK         0.0748 
     86 H86        28.3932   29.6455    2.3918 H         1 UNK         0.0940 
     87 H87        26.8858   30.2064    1.7303 H         1 UNK         0.0940 
     88 H88        28.0687   27.4015    1.4242 H         1 UNK         0.0703 
     89 H89        26.1598   26.6450    0.6141 H         1 UNK         0.3081 
     90 H90        23.0722   27.8483    0.2143 H         1 UNK         0.0719 
     91 H91        23.4962   28.6958   -2.0965 H         1 UNK         0.0809 
     92 H92        24.4849   27.2856   -2.4528 H         1 UNK         0.0809 
     93 H93        22.7570   27.1052   -2.1494 H         1 UNK         0.0809 
     94 H94        24.2111   25.4294   -0.8658 H         1 UNK         0.2990 
     95 H95        24.6415   23.7137    2.1561 H         1 UNK         0.0690 
     96 H96        23.0356   22.0648    1.2099 H         1 UNK         0.0788 
     97 H97        22.3563   23.3040    0.1552 H         1 UNK         0.0788 
     98 H98        22.1967   23.4458    1.8976 H         1 UNK         0.0788 
     99 H99        26.0431   23.0717    0.6092 H         1 UNK         0.2993 
    100 H100       26.1083   21.7838   -2.1110 H         1 UNK         0.0949 
    101 H101       26.6564   24.6130   -3.1574 H         1 UNK         0.0767 
    102 H102       27.3877   23.1449   -3.8038 H         1 UNK         0.0767 
    103 H103       25.6538   23.3878   -3.9183 H         1 UNK         0.0767 
    104 H104       27.9958   21.9447   -0.9707 H         1 UNK         0.3013 
    105 H105       28.3315   26.7933   -0.9516 H         1 UNK         0.3121 
    106 H106       29.1726   28.8148   -2.8175 H         1 UNK         0.0774 
    107 H107       29.9239   25.8435   -2.6345 H         1 UNK         0.0815 
    108 H108       28.5318   26.4954   -3.4975 H         1 UNK         0.0815 
    109 H109       30.1598   26.8825   -4.0321 H         1 UNK         0.0815 
    110 H110       30.7127   27.2387   -0.1095 H         1 UNK         0.2987 
    111 H111       33.3515   28.5220   -0.5871 H         1 UNK         0.0949 
    112 H112       33.4165   26.1819    0.2483 H         1 UNK         0.0806 
    113 H113       33.9738   27.2723    1.5078 H         1 UNK         0.0806 
    114 H114       32.3501   26.5955    1.5879 H         1 UNK         0.0806 
    115 H115       33.9858   30.2576    0.7096 H         1 UNK         0.3010 
    116 H116       31.9331   31.9762    1.6997 H         1 UNK         0.0829 
    117 H117       34.9892   32.1536    1.9638 H         1 UNK         0.0813 
    118 H118       33.8628   33.4705    2.2606 H         1 UNK         0.0813 
    119 H119       34.0295   32.8173    0.6408 H         1 UNK         0.0813 
    120 H120       31.3796   32.5877    3.7514 H         1 UNK         0.3038 
    121 H121       31.4095   30.7136    5.8237 H         1 UNK         0.0769 
    122 H122       29.6128   32.3835    5.4671 H         1 UNK         0.0811 
    123 H123       30.7123   33.6969    5.8938 H         1 UNK         0.0811 
    124 H124       30.2343   32.5124    7.1013 H         1 UNK         0.0811 
    125 H125       34.0259   32.6401    5.0863 H         1 UNK         0.3204 
    126 H126       35.1576   33.0209    7.7382 H         1 UNK         0.0748 
    127 H127       36.4371   33.0569    4.9472 H         1 UNK         0.0771 
    128 H128       35.8161   34.4636    5.8130 H         1 UNK         0.0771 
    129 H129       37.2081   33.5940    6.4332 H         1 UNK         0.0771 
    130 H130       34.6562   30.2366    5.7827 H         1 UNK         0.2980 
    131 H131       36.9236   28.7050    6.2095 H         1 UNK         0.0545 
    132 H132       36.8515   26.9057    9.2839 H         1 UNK         0.3459 
    133 H133       37.4218   26.8691    7.6362 H         1 UNK         0.3459 
    134 H134       35.5043   26.7463    5.7045 H         1 UNK         0.0616 
    135 H135       35.1904   28.0698    4.6227 H         1 UNK         0.0616 
    136 H136       32.7860   28.0481    3.7354 H         1 UNK         0.0634 
    137 H137       33.1826   26.3735    4.0210 H         1 UNK         0.0634 
@<TRIPOS>BOND
     1    1    2 1    
     2    1   72 1    
     3    1   73 1    
     4    1   74 1    
     5    2    3 2    
     6    2    4 am   BACKBONE|DICT|INTERRES
     7    4    5 1    
     8    4   75 1    
     9    5    6 1    
    10    5   35 1    
    11    5   76 1    
    12    6    7 1    
    13    6   77 1    
    14    6   78 1    
    15    7    8 1    
    16    8    9 1    
    17    8   79 1    
    18    8   80 1    
    19    9   10 ar   
    20    9   14 ar   
    21   10   11 ar   
    22   10   81 1    
    23   11   12 ar   
    24   11   71 1    
    25   12   13 ar   
    26   12   82 1    
    27   13   14 ar   
    28   13   15 1    
    29   14   83 1    
    30   15   16 1    
    31   15   84 1    
    32   15   85 1    
    33   16   17 1    
    34   17   18 1    
    35   17   86 1    
    36   17   87 1    
    37   18   19 1    
    38   18   37 1    
    39   18   88 1    
    40   19   20 am   BACKBONE|DICT|INTERRES
    41   19   89 1    
    42   20   21 2    
    43   20   22 1    
    44   22   23 1    
    45   22   24 1    
    46   22   90 1    
    47   23   91 1    
    48   23   92 1    
    49   23   93 1    
    50   24   25 am   BACKBONE|DICT|INTERRES
    51   24   94 1    
    52   25   26 2    
    53   25   27 1    
    54   27   28 1    
    55   27   29 1    
    56   27   95 1    
    57   28   96 1    
    58   28   97 1    
    59   28   98 1    
    60   29   30 am   BACKBONE|DICT|INTERRES
    61   29   99 1    
    62   30   31 2    
    63   30   32 1    
    64   32   33 1    
    65   32   34 1    
    66   32  100 1    
    67   33  101 1    
    68   33  102 1    
    69   33  103 1    
    70   34   35 am   BACKBONE|DICT|INTERRES
    71   34  104 1    
    72   35   36 2    
    73   37   38 2    
    74   37   39 am   BACKBONE|DICT|INTERRES
    75   39   40 1    
    76   39  105 1    
    77   40   41 1    
    78   40   42 1    
    79   40  106 1    
    80   41  107 1    
    81   41  108 1    
    82   41  109 1    
    83   42   43 2    
    84   42   44 am   BACKBONE|DICT|INTERRES
    85   44   45 1    
    86   44  110 1    
    87   45   46 1    
    88   45   47 1    
    89   45  111 1    
    90   46  112 1    
    91   46  113 1    
    92   46  114 1    
    93   47   48 2    
    94   47   49 am   BACKBONE|DICT|INTERRES
    95   49   50 1    
    96   49  115 1    
    97   50   51 1    
    98   50   52 1    
    99   50  116 1    
   100   51  117 1    
   101   51  118 1    
   102   51  119 1    
   103   52   53 2    
   104   52   54 am   BACKBONE|DICT|INTERRES
   105   54   55 1    
   106   54  120 1    
   107   55   56 1    
   108   55   57 1    
   109   55  121 1    
   110   56  122 1    
   111   56  123 1    
   112   56  124 1    
   113   57   58 2    
   114   57   59 am   BACKBONE|DICT|INTERRES
   115   59   60 1    
   116   59  125 1    
   117   60   61 1    
   118   60   62 1    
   119   60  126 1    
   120   61  127 1    
   121   61  128 1    
   122   61  129 1    
   123   62   63 2    
   124   62   64 am   BACKBONE|DICT|INTERRES
   125   64   65 1    
   126   64  130 1    
   127   65   66 1    
   128   65   69 1    
   129   65  131 1    
   130   66   67 am   BACKBONE|DICT|INTERRES
   131   66   68 2    
   132   67  132 1    
   133   67  133 1    
   134   69   70 1    
   135   69  134 1    
   136   69  135 1    
   137   70   71 1    
   138   71  136 1    
   139   71  137 1    
@<TRIPOS>SUBSTRUCTURE
     1 UNK         1 GROUP             0       ****    0 ROOT    
