@<TRIPOS>MOLECULE
3R136
137   139    1
SMALL
USER_CHARGES


@<TRIPOS>ATOM
      1 CA         34.8451   25.6376    0.7461 C.3       0 UNK        -0.1979 
      2 C          33.3283   25.7162    0.8312 C.2       0 UNK         0.4864 
      3 O          32.7604   26.7752    0.5652 O.2       0 UNK        -0.5359 
      4 N          32.6816   24.6064    1.2122 N.am      1 UNK        -0.4318 
      5 CA         31.2286   24.4581    1.3454 C.3       1 UNK         0.0824 
      6 C6         30.9009   23.1341    2.0911 C.3       12 UNK        -0.0944 
      7 S7         29.1271   22.8351    2.4358 S.3       12 UNK        -0.2672 
      8 C8         28.9929   23.1655    4.2192 C.3       12 UNK         0.0333 
      9 C9         28.8616   24.6525    4.5119 C.ar      12 UNK        -0.0807 
     10 C10        30.0034   25.4465    4.6241 C.ar      12 UNK        -0.0894 
     11 C11        29.9076   26.8130    4.9151 C.ar      12 UNK        -0.0804 
     12 C12        28.6374   27.3714    5.1136 C.ar      12 UNK        -0.0824 
     13 C13        27.4826   26.5832    5.0281 C.ar      12 UNK        -0.0762 
     14 C14        27.6035   25.2264    4.7123 C.ar      12 UNK        -0.0782 
     15 C15        26.1139   27.1636    5.3737 C.3       12 UNK         0.0230 
     16 S16        24.9091   27.0628    4.0062 S.3       12 UNK        -0.2608 
     17 C17        25.2467   28.5921    3.0699 C.3       12 UNK        -0.0989 
     18 CA         25.8218   28.2983    1.6598 C.3       5 UNK         0.0716 
     19 N          24.9498   27.4850    0.8015 N.am      5 UNK        -0.4135 
     20 C          23.7535   27.8340    0.3031 C.2       4 UNK         0.5031 
     21 O          23.1863   28.8925    0.5766 O.2       4 UNK        -0.5229 
     22 CA         23.0938   26.8837   -0.7179 C.3       4 UNK         0.0329 
     23 CB         22.8522   27.6110   -2.0532 C.3       4 UNK        -0.2001 
     24 N          23.8873   25.6805   -0.9848 N.am      4 UNK        -0.4303 
     25 C          23.8090   24.5393   -0.2885 C.2       3 UNK         0.5044 
     26 O          23.0093   24.3464    0.6275 O.2       3 UNK        -0.5152 
     27 CA         24.8103   23.4300   -0.6650 C.3       3 UNK         0.0319 
     28 CB         24.1919   22.4801   -1.7034 C.3       3 UNK        -0.2001 
     29 N          26.1089   23.9123   -1.1600 N.am      3 UNK        -0.4354 
     30 C          26.9565   24.6777   -0.4591 C.2       2 UNK         0.4964 
     31 O          26.6903   25.1649    0.6419 O.2       2 UNK        -0.5047 
     32 CA         28.3146   24.9886   -1.0949 C.3       2 UNK         0.0288 
     33 CB         28.2817   26.3429   -1.8194 C.3       2 UNK        -0.2113 
     34 N          29.2800   25.0398   -0.0047 N.am      2 UNK        -0.4145 
     35 C          30.5195   24.5406   -0.0255 C.2       1 UNK         0.5006 
     36 O          31.0721   24.1050   -1.0399 O.2       1 UNK        -0.5103 
     37 C          26.3554   29.5618    0.9458 C.2       5 UNK         0.5055 
     38 O          26.7662   30.5158    1.6096 O.2       5 UNK        -0.5220 
     39 N          26.4451   29.5186   -0.3936 N.am      6 UNK        -0.4450 
     40 CA         27.2287   30.4423   -1.2246 C.3       6 UNK         0.0367 
     41 CB         26.6422   30.4566   -2.6483 C.3       6 UNK        -0.1929 
     42 C          28.7104   30.0131   -1.1924 C.2       6 UNK         0.5070 
     43 O          29.2910   29.6617   -2.2202 O.2       6 UNK        -0.5237 
     44 N          29.2434   29.9487    0.0280 N.am      7 UNK        -0.4739 
     45 CA         30.4497   29.2313    0.4155 C.3       7 UNK         0.0276 
     46 CB         30.0703   28.3790    1.6416 C.3       7 UNK        -0.1927 
     47 C          31.5946   30.1995    0.7452 C.2       7 UNK         0.5013 
     48 O          31.4182   31.4207    0.6902 O.2       7 UNK        -0.5193 
     49 N          32.7535   29.6247    1.0872 N.am      8 UNK        -0.4253 
     50 CA         33.9432   30.3297    1.5714 C.3       8 UNK         0.0242 
     51 CB         35.0836   29.3095    1.7267 C.3       8 UNK        -0.2000 
     52 C          33.7052   31.0739    2.9011 C.2       8 UNK         0.4948 
     53 O          32.7767   30.7455    3.6433 O.2       8 UNK        -0.5275 
     54 N          34.5807   32.0478    3.1935 N.am      9 UNK        -0.4246 
     55 CA         34.5512   32.8712    4.4113 C.3       9 UNK         0.0261 
     56 CB         35.6088   33.9818    4.3008 C.3       9 UNK        -0.1959 
     57 C          34.7421   32.0736    5.7162 C.2       9 UNK         0.5033 
     58 O          34.2277   32.4848    6.7576 O.2       9 UNK        -0.5390 
     59 N          35.4533   30.9459    5.6299 N.am      10 UNK        -0.4215 
     60 CA         35.5634   29.9218    6.6586 C.3       10 UNK         0.0240 
     61 CB         36.8133   30.1653    7.5217 C.3       10 UNK        -0.1982 
     62 C          35.6365   28.5801    5.9259 C.2       10 UNK         0.4970 
     63 O          36.3422   28.4906    4.9175 O.2       10 UNK        -0.4916 
     64 N          34.9091   27.5814    6.4342 N.am      11 UNK        -0.4279 
     65 CA         34.7968   26.2375    5.8397 C.3       11 UNK         0.1003 
     66 C          35.4136   25.1195    6.7293 C.2       11 UNK         0.5709 
     67 N          36.0606   25.4358    7.8455 N.am      11 UNK        -0.7358 
     68 O          35.3232   23.9409    6.3935 O.2       11 UNK        -0.4999 
     69 C69        33.3342   25.9114    5.4309 C.3       12 UNK        -0.0954 
     70 S70        32.6574   27.1090    4.2285 S.3       12 UNK        -0.2268 
     71 C71        31.1449   27.7061    5.0670 C.3       12 UNK         0.0203 
     72 H72        35.2030   24.6095    0.7968 H         1 UNK         0.0888 
     73 H73        35.2939   26.1955    1.5674 H         1 UNK         0.0888 
     74 H74        35.1920   26.0701   -0.1919 H         1 UNK         0.0888 
     75 H75        33.2173   23.7681    1.3826 H         1 UNK         0.3017 
     76 H76        30.8787   25.2949    1.9525 H         1 UNK         0.0873 
     77 H77        31.4513   23.0965    3.0322 H         1 UNK         0.0745 
     78 H78        31.2640   22.2837    1.5106 H         1 UNK         0.0745 
     79 H79        28.1196   22.6353    4.6022 H         1 UNK         0.0705 
     80 H80        29.8510   22.7457    4.7462 H         1 UNK         0.0705 
     81 H81        30.9664   24.9813    4.4863 H         1 UNK         0.1334 
     82 H82        28.5510   28.4191    5.3682 H         1 UNK         0.1417 
     83 H83        26.7153   24.6121    4.6489 H         1 UNK         0.1562 
     84 H84        26.1970   28.1942    5.7215 H         1 UNK         0.0748 
     85 H85        25.7126   26.6007    6.2176 H         1 UNK         0.0748 
     86 H86        25.9385   29.2078    3.6469 H         1 UNK         0.0940 
     87 H87        24.3240   29.1697    2.9977 H         1 UNK         0.0940 
     88 H88        26.7119   27.6856    1.8128 H         1 UNK         0.0703 
     89 H89        25.3248   26.5675    0.5806 H         1 UNK         0.3081 
     90 H90        22.1230   26.5952   -0.3091 H         1 UNK         0.0719 
     91 H91        23.7843   27.9560   -2.5026 H         1 UNK         0.0809 
     92 H92        22.3520   26.9626   -2.7728 H         1 UNK         0.0809 
     93 H93        22.2149   28.4856   -1.9149 H         1 UNK         0.0809 
     94 H94        24.5650   25.7355   -1.7313 H         1 UNK         0.2990 
     95 H95        25.0058   22.8565    0.2438 H         1 UNK         0.0690 
     96 H96        24.8402   21.6251   -1.8964 H         1 UNK         0.0788 
     97 H97        24.0067   22.9841   -2.6529 H         1 UNK         0.0788 
     98 H98        23.2370   22.0857   -1.3524 H         1 UNK         0.0788 
     99 H99        26.3961   23.5733   -2.0676 H         1 UNK         0.2993 
    100 H100       28.5764   24.1932   -1.7964 H         1 UNK         0.0949 
    101 H101       28.0007   27.1481   -1.1414 H         1 UNK         0.0767 
    102 H102       29.2568   26.5909   -2.2397 H         1 UNK         0.0767 
    103 H103       27.5649   26.3355   -2.6412 H         1 UNK         0.0767 
    104 H104       28.8633   25.2765    0.8881 H         1 UNK         0.3013 
    105 H105       26.1024   28.6913   -0.8571 H         1 UNK         0.3121 
    106 H106       27.1608   31.4532   -0.8166 H         1 UNK         0.0774 
    107 H107       26.6916   29.4733   -3.1178 H         1 UNK         0.0815 
    108 H108       25.5995   30.7747   -2.6440 H         1 UNK         0.0815 
    109 H109       27.1898   31.1508   -3.2870 H         1 UNK         0.0815 
    110 H110       28.6953   30.3282    0.7918 H         1 UNK         0.2987 
    111 H111       30.7789   28.5722   -0.3916 H         1 UNK         0.0949 
    112 H112       29.2704   27.6776    1.4061 H         1 UNK         0.0806 
    113 H113       30.9110   27.7896    2.0001 H         1 UNK         0.0806 
    114 H114       29.7359   28.9988    2.4743 H         1 UNK         0.0806 
    115 H115       32.7973   28.6074    1.0781 H         1 UNK         0.3010 
    116 H116       34.2235   31.0637    0.8133 H         1 UNK         0.0829 
    117 H117       36.0104   29.7903    2.0417 H         1 UNK         0.0813 
    118 H118       35.2895   28.7984    0.7862 H         1 UNK         0.0813 
    119 H119       34.8413   28.5519    2.4735 H         1 UNK         0.0813 
    120 H120       35.3159   32.2524    2.5313 H         1 UNK         0.3038 
    121 H121       33.5667   33.3413    4.4632 H         1 UNK         0.0769 
    122 H122       35.4289   34.6183    3.4342 H         1 UNK         0.0811 
    123 H123       36.6168   33.5737    4.2168 H         1 UNK         0.0811 
    124 H124       35.5910   34.6257    5.1814 H         1 UNK         0.0811 
    125 H125       35.8147   30.6636    4.7275 H         1 UNK         0.3204 
    126 H126       34.6725   29.9378    7.2905 H         1 UNK         0.0748 
    127 H127       36.9112   29.4001    8.2926 H         1 UNK         0.0771 
    128 H128       37.7257   30.1483    6.9240 H         1 UNK         0.0771 
    129 H129       36.7626   31.1304    8.0263 H         1 UNK         0.0771 
    130 H130       34.3667   27.7363    7.2714 H         1 UNK         0.2980 
    131 H131       35.3896   26.2001    4.9241 H         1 UNK         0.0545 
    132 H132       36.1734   26.3977    8.1212 H         1 UNK         0.3459 
    133 H133       36.4605   24.7002    8.4066 H         1 UNK         0.3459 
    134 H134       32.6922   25.8671    6.3121 H         1 UNK         0.0616 
    135 H135       33.2825   24.9261    4.9645 H         1 UNK         0.0616 
    136 H136       31.3533   27.8566    6.1267 H         1 UNK         0.0634 
    137 H137       30.9224   28.6931    4.6590 H         1 UNK         0.0634 
@<TRIPOS>BOND
     1    1    2 1    
     2    1   72 1    
     3    1   73 1    
     4    1   74 1    
     5    2    3 2    
     6    2    4 am   BACKBONE|DICT|INTERRES
     7    4    5 1    
     8    4   75 1    
     9    5    6 1    
    10    5   35 1    
    11    5   76 1    
    12    6    7 1    
    13    6   77 1    
    14    6   78 1    
    15    7    8 1    
    16    8    9 1    
    17    8   79 1    
    18    8   80 1    
    19    9   10 ar   
    20    9   14 ar   
    21   10   11 ar   
    22   10   81 1    
    23   11   12 ar   
    24   11   71 1    
    25   12   13 ar   
    26   12   82 1    
    27   13   14 ar   
    28   13   15 1    
    29   14   83 1    
    30   15   16 1    
    31   15   84 1    
    32   15   85 1    
    33   16   17 1    
    34   17   18 1    
    35   17   86 1    
    36   17   87 1    
    37   18   19 1    
    38   18   37 1    
    39   18   88 1    
    40   19   20 am   BACKBONE|DICT|INTERRES
    41   19   89 1    
    42   20   21 2    
    43   20   22 1    
    44   22   23 1    
    45   22   24 1    
    46   22   90 1    
    47   23   91 1    
    48   23   92 1    
    49   23   93 1    
    50   24   25 am   BACKBONE|DICT|INTERRES
    51   24   94 1    
    52   25   26 2    
    53   25   27 1    
    54   27   28 1    
    55   27   29 1    
    56   27   95 1    
    57   28   96 1    
    58   28   97 1    
    59   28   98 1    
    60   29   30 am   BACKBONE|DICT|INTERRES
    61   29   99 1    
    62   30   31 2    
    63   30   32 1    
    64   32   33 1    
    65   32   34 1    
    66   32  100 1    
    67   33  101 1    
    68   33  102 1    
    69   33  103 1    
    70   34   35 am   BACKBONE|DICT|INTERRES
    71   34  104 1    
    72   35   36 2    
    73   37   38 2    
    74   37   39 am   BACKBONE|DICT|INTERRES
    75   39   40 1    
    76   39  105 1    
    77   40   41 1    
    78   40   42 1    
    79   40  106 1    
    80   41  107 1    
    81   41  108 1    
    82   41  109 1    
    83   42   43 2    
    84   42   44 am   BACKBONE|DICT|INTERRES
    85   44   45 1    
    86   44  110 1    
    87   45   46 1    
    88   45   47 1    
    89   45  111 1    
    90   46  112 1    
    91   46  113 1    
    92   46  114 1    
    93   47   48 2    
    94   47   49 am   BACKBONE|DICT|INTERRES
    95   49   50 1    
    96   49  115 1    
    97   50   51 1    
    98   50   52 1    
    99   50  116 1    
   100   51  117 1    
   101   51  118 1    
   102   51  119 1    
   103   52   53 2    
   104   52   54 am   BACKBONE|DICT|INTERRES
   105   54   55 1    
   106   54  120 1    
   107   55   56 1    
   108   55   57 1    
   109   55  121 1    
   110   56  122 1    
   111   56  123 1    
   112   56  124 1    
   113   57   58 2    
   114   57   59 am   BACKBONE|DICT|INTERRES
   115   59   60 1    
   116   59  125 1    
   117   60   61 1    
   118   60   62 1    
   119   60  126 1    
   120   61  127 1    
   121   61  128 1    
   122   61  129 1    
   123   62   63 2    
   124   62   64 am   BACKBONE|DICT|INTERRES
   125   64   65 1    
   126   64  130 1    
   127   65   66 1    
   128   65   69 1    
   129   65  131 1    
   130   66   67 am   BACKBONE|DICT|INTERRES
   131   66   68 2    
   132   67  132 1    
   133   67  133 1    
   134   69   70 1    
   135   69  134 1    
   136   69  135 1    
   137   70   71 1    
   138   71  136 1    
   139   71  137 1    
@<TRIPOS>SUBSTRUCTURE
     1 UNK         1 GROUP             0       ****    0 ROOT    
