@<TRIPOS>MOLECULE
3R136
137   139    1
SMALL
USER_CHARGES


@<TRIPOS>ATOM
      1 CA         31.1247   19.9969   -4.4531 C.3       0 UNK        -0.1979 
      2 C          30.7218   21.3169   -3.8131 C.2       0 UNK         0.4864 
      3 O          30.7876   22.3609   -4.4656 O.2       0 UNK        -0.5359 
      4 N          30.3036   21.2842   -2.5410 N.am      1 UNK        -0.4318 
      5 CA         29.8660   22.4503   -1.7677 C.3       1 UNK         0.0824 
      6 C6         29.9675   22.2120   -0.2403 C.3       12 UNK        -0.0944 
      7 S7         31.6929   21.9732    0.3051 S.3       12 UNK        -0.2672 
      8 C8         32.0859   23.6203    0.9916 C.3       12 UNK         0.0333 
      9 C9         31.7681   23.7863    2.4787 C.ar      12 UNK        -0.0807 
     10 C10        32.6025   24.5887    3.2643 C.ar      12 UNK        -0.0894 
     11 C11        32.3294   24.7957    4.6196 C.ar      12 UNK        -0.0804 
     12 C12        31.2179   24.1818    5.2005 C.ar      12 UNK        -0.0824 
     13 C13        30.3691   23.3853    4.4289 C.ar      12 UNK        -0.0762 
     14 C14        30.6480   23.1912    3.0734 C.ar      12 UNK        -0.0782 
     15 C15        29.1425   22.7386    5.0510 C.3       12 UNK         0.0230 
     16 S16        27.6375   23.6987    4.6986 S.3       12 UNK        -0.2608 
     17 C17        27.8621   25.1624    5.7691 C.3       12 UNK        -0.0989 
     18 CA         28.2103   26.4644    4.9930 C.3       5 UNK         0.0716 
     19 N          27.2287   26.7179    3.9278 N.am      5 UNK        -0.4135 
     20 C          27.3385   27.5535    2.8874 C.2       4 UNK         0.5031 
     21 O          28.2727   28.3433    2.7182 O.2       4 UNK        -0.5229 
     22 CA         26.1648   27.5426    1.8944 C.3       4 UNK         0.0329 
     23 CB         25.1519   28.6412    2.2569 C.3       4 UNK        -0.2001 
     24 N          26.6119   27.7337    0.5132 N.am      4 UNK        -0.4303 
     25 C          27.3472   26.8528   -0.1772 C.2       3 UNK         0.5044 
     26 O          27.7031   25.7553    0.2590 O.2       3 UNK        -0.5152 
     27 CA         27.7837   27.2907   -1.5854 C.3       3 UNK         0.0319 
     28 CB         29.1577   27.9756   -1.5255 C.3       3 UNK        -0.2001 
     29 N          27.8696   26.1489   -2.4938 N.am      3 UNK        -0.4354 
     30 C          26.8220   25.4968   -3.0181 C.2       2 UNK         0.4964 
     31 O          25.6520   25.8595   -2.8891 O.2       2 UNK        -0.5047 
     32 CA         27.1354   24.2190   -3.8202 C.3       2 UNK         0.0288 
     33 CB         27.2814   24.5393   -5.3167 C.3       2 UNK        -0.2113 
     34 N          28.3510   23.5505   -3.3464 N.am      2 UNK        -0.4145 
     35 C          28.4464   22.8828   -2.1887 C.2       1 UNK         0.5006 
     36 O          27.4771   22.6080   -1.4781 O.2       1 UNK        -0.5103 
     37 C          28.3764   27.6659    5.9589 C.2       5 UNK         0.5055 
     38 O          28.2579   27.5026    7.1755 O.2       5 UNK        -0.5220 
     39 N          28.6131   28.8566    5.4063 N.am      6 UNK        -0.4450 
     40 CA         28.7479   30.1283    6.1043 C.3       6 UNK         0.0367 
     41 CB         27.3553   30.6685    6.5022 C.3       6 UNK        -0.1929 
     42 C          29.5658   31.0770    5.2155 C.2       6 UNK         0.5070 
     43 O          30.5629   30.6491    4.6311 O.2       6 UNK        -0.5237 
     44 N          29.1398   32.3427    5.1085 N.am      7 UNK        -0.4739 
     45 CA         29.8203   33.4106    4.3675 C.3       7 UNK         0.0276 
     46 CB         29.0897   34.7401    4.6152 C.3       7 UNK        -0.1927 
     47 C          29.9717   33.1560    2.8566 C.2       7 UNK         0.5013 
     48 O          30.9101   33.6827    2.2599 O.2       7 UNK        -0.5193 
     49 N          29.0748   32.3484    2.2707 N.am      8 UNK        -0.4253 
     50 CA         29.1265   31.9328    0.8660 C.3       8 UNK         0.0242 
     51 CB         27.8043   31.2558    0.4724 C.3       8 UNK        -0.2000 
     52 C          30.3294   31.0193    0.5744 C.2       8 UNK         0.4948 
     53 O          31.0692   31.2781   -0.3748 O.2       8 UNK        -0.5275 
     54 N          30.5213   29.9905    1.4134 N.am      9 UNK        -0.4246 
     55 CA         31.6923   29.1066    1.3895 C.3       9 UNK         0.0261 
     56 CB         31.3380   27.7845    2.0870 C.3       9 UNK        -0.1959 
     57 C          32.9482   29.7397    2.0244 C.2       9 UNK         0.5033 
     58 O          34.0381   29.1881    1.8658 O.2       9 UNK        -0.5390 
     59 N          32.7707   30.8748    2.7160 N.am      10 UNK        -0.4215 
     60 CA         33.7604   31.6653    3.4526 C.3       10 UNK         0.0240 
     61 CB         34.8832   32.1802    2.5260 C.3       10 UNK        -0.1982 
     62 C          34.2751   30.9222    4.6971 C.2       10 UNK         0.4970 
     63 O          35.4861   30.8290    4.9087 O.2       10 UNK        -0.4916 
     64 N          33.3357   30.4181    5.5025 N.am      11 UNK        -0.4279 
     65 CA         33.5869   29.7006    6.7574 C.3       11 UNK         0.1003 
     66 C          32.5155   30.0284    7.8358 C.2       11 UNK         0.5709 
     67 N          32.4580   29.2745    8.9257 N.am      11 UNK        -0.7358 
     68 O          31.7608   30.9926    7.7226 O.2       11 UNK        -0.4999 
     69 C69        33.8466   28.1865    6.5186 C.3       12 UNK        -0.0954 
     70 S70        32.4646   27.3220    5.7036 S.3       12 UNK        -0.2268 
     71 C71        33.2267   25.6919    5.4554 C.3       12 UNK         0.0203 
     72 H72        31.0231   19.1608   -3.7614 H         1 UNK         0.0888 
     73 H73        30.5001   19.7960   -5.3229 H         1 UNK         0.0888 
     74 H74        32.1629   20.0413   -4.7811 H         1 UNK         0.0888 
     75 H75        30.2620   20.4001   -2.0542 H         1 UNK         0.3017 
     76 H76        30.5305   23.2852   -2.0034 H         1 UNK         0.0873 
     77 H77        29.5356   23.0568    0.3004 H         1 UNK         0.0745 
     78 H78        29.3873   21.3356    0.0546 H         1 UNK         0.0745 
     79 H79        33.1509   23.7909    0.8266 H         1 UNK         0.0705 
     80 H80        31.5652   24.3940    0.4256 H         1 UNK         0.0705 
     81 H81        33.4624   25.0683    2.8166 H         1 UNK         0.1334 
     82 H82        31.0064   24.3425    6.2488 H         1 UNK         0.1417 
     83 H83        29.9791   22.5771    2.4895 H         1 UNK         0.1562 
     84 H84        29.2653   22.6219    6.1289 H         1 UNK         0.0748 
     85 H85        29.0190   21.7314    4.6501 H         1 UNK         0.0748 
     86 H86        26.9359   25.2958    6.3320 H         1 UNK         0.0940 
     87 H87        28.6287   24.9469    6.5153 H         1 UNK         0.0940 
     88 H88        29.1803   26.3185    4.5122 H         1 UNK         0.0703 
     89 H89        26.4063   26.1347    3.9750 H         1 UNK         0.3081 
     90 H90        25.6634   26.5737    1.9504 H         1 UNK         0.0719 
     91 H91        24.7659   28.4987    3.2672 H         1 UNK         0.0809 
     92 H92        25.5985   29.6353    2.2196 H         1 UNK         0.0809 
     93 H93        24.2959   28.6316    1.5819 H         1 UNK         0.0809 
     94 H94        26.3832   28.6179    0.0849 H         1 UNK         0.2990 
     95 H95        27.0533   27.9984   -1.9836 H         1 UNK         0.0690 
     96 H96        29.4789   28.3165   -2.5099 H         1 UNK         0.0788 
     97 H97        29.9265   27.3102   -1.1298 H         1 UNK         0.0788 
     98 H98        29.1238   28.8490   -0.8772 H         1 UNK         0.0788 
     99 H99        28.7889   25.7602   -2.6371 H         1 UNK         0.2993 
    100 H100       26.2928   23.5352   -3.6948 H         1 UNK         0.0949 
    101 H101       27.4433   23.6335   -5.9015 H         1 UNK         0.0767 
    102 H102       26.3796   25.0169   -5.7028 H         1 UNK         0.0767 
    103 H103       28.1161   25.2154   -5.5066 H         1 UNK         0.0767 
    104 H104       29.1836   23.6235   -3.9217 H         1 UNK         0.3013 
    105 H105       28.7143   28.8901    4.3927 H         1 UNK         0.3121 
    106 H106       29.3333   29.9664    7.0112 H         1 UNK         0.0774 
    107 H107       26.7359   30.8765    5.6287 H         1 UNK         0.0815 
    108 H108       26.8165   29.9512    7.1215 H         1 UNK         0.0815 
    109 H109       27.4344   31.5845    7.0887 H         1 UNK         0.0815 
    110 H110       28.3075   32.6078    5.6155 H         1 UNK         0.2987 
    111 H111       30.8293   33.4955    4.7773 H         1 UNK         0.0949 
    112 H112       29.0704   34.9920    5.6757 H         1 UNK         0.0806 
    113 H113       29.5884   35.5622    4.0995 H         1 UNK         0.0806 
    114 H114       28.0599   34.7082    4.2571 H         1 UNK         0.0806 
    115 H115       28.3371   31.9629    2.8416 H         1 UNK         0.3010 
    116 H116       29.2386   32.8319    0.2558 H         1 UNK         0.0829 
    117 H117       27.6250   30.3565    1.0594 H         1 UNK         0.0813 
    118 H118       27.8119   30.9679   -0.5796 H         1 UNK         0.0813 
    119 H119       26.9567   31.9260    0.6170 H         1 UNK         0.0813 
    120 H120       29.8341   29.8024    2.1342 H         1 UNK         0.3038 
    121 H121       31.9367   28.8821    0.3491 H         1 UNK         0.0769 
    122 H122       30.5251   27.2679    1.5761 H         1 UNK         0.0811 
    123 H123       31.0356   27.9447    3.1223 H         1 UNK         0.0811 
    124 H124       32.1937   27.1102    2.0969 H         1 UNK         0.0811 
    125 H125       31.8103   31.1659    2.8457 H         1 UNK         0.3204 
    126 H126       33.2252   32.5401    3.8248 H         1 UNK         0.0748 
    127 H127       35.5091   31.3698    2.1515 H         1 UNK         0.0771 
    128 H128       34.4734   32.7128    1.6677 H         1 UNK         0.0771 
    129 H129       35.5366   32.8739    3.0564 H         1 UNK         0.0771 
    130 H130       32.3529   30.5327    5.2634 H         1 UNK         0.2980 
    131 H131       34.5015   30.1147    7.1854 H         1 UNK         0.0545 
    132 H132       33.0717   28.4850    9.0469 H         1 UNK         0.3459 
    133 H133       31.7776   29.4947    9.6356 H         1 UNK         0.3459 
    134 H134       34.0857   27.6746    7.4516 H         1 UNK         0.0616 
    135 H135       34.7307   28.0731    5.8894 H         1 UNK         0.0616 
    136 H136       34.1971   25.8151    4.9718 H         1 UNK         0.0634 
    137 H137       33.4170   25.2288    6.4247 H         1 UNK         0.0634 
@<TRIPOS>BOND
     1    1    2 1    
     2    1   72 1    
     3    1   73 1    
     4    1   74 1    
     5    2    3 2    
     6    2    4 am   BACKBONE|DICT|INTERRES
     7    4    5 1    
     8    4   75 1    
     9    5    6 1    
    10    5   35 1    
    11    5   76 1    
    12    6    7 1    
    13    6   77 1    
    14    6   78 1    
    15    7    8 1    
    16    8    9 1    
    17    8   79 1    
    18    8   80 1    
    19    9   10 ar   
    20    9   14 ar   
    21   10   11 ar   
    22   10   81 1    
    23   11   12 ar   
    24   11   71 1    
    25   12   13 ar   
    26   12   82 1    
    27   13   14 ar   
    28   13   15 1    
    29   14   83 1    
    30   15   16 1    
    31   15   84 1    
    32   15   85 1    
    33   16   17 1    
    34   17   18 1    
    35   17   86 1    
    36   17   87 1    
    37   18   19 1    
    38   18   37 1    
    39   18   88 1    
    40   19   20 am   BACKBONE|DICT|INTERRES
    41   19   89 1    
    42   20   21 2    
    43   20   22 1    
    44   22   23 1    
    45   22   24 1    
    46   22   90 1    
    47   23   91 1    
    48   23   92 1    
    49   23   93 1    
    50   24   25 am   BACKBONE|DICT|INTERRES
    51   24   94 1    
    52   25   26 2    
    53   25   27 1    
    54   27   28 1    
    55   27   29 1    
    56   27   95 1    
    57   28   96 1    
    58   28   97 1    
    59   28   98 1    
    60   29   30 am   BACKBONE|DICT|INTERRES
    61   29   99 1    
    62   30   31 2    
    63   30   32 1    
    64   32   33 1    
    65   32   34 1    
    66   32  100 1    
    67   33  101 1    
    68   33  102 1    
    69   33  103 1    
    70   34   35 am   BACKBONE|DICT|INTERRES
    71   34  104 1    
    72   35   36 2    
    73   37   38 2    
    74   37   39 am   BACKBONE|DICT|INTERRES
    75   39   40 1    
    76   39  105 1    
    77   40   41 1    
    78   40   42 1    
    79   40  106 1    
    80   41  107 1    
    81   41  108 1    
    82   41  109 1    
    83   42   43 2    
    84   42   44 am   BACKBONE|DICT|INTERRES
    85   44   45 1    
    86   44  110 1    
    87   45   46 1    
    88   45   47 1    
    89   45  111 1    
    90   46  112 1    
    91   46  113 1    
    92   46  114 1    
    93   47   48 2    
    94   47   49 am   BACKBONE|DICT|INTERRES
    95   49   50 1    
    96   49  115 1    
    97   50   51 1    
    98   50   52 1    
    99   50  116 1    
   100   51  117 1    
   101   51  118 1    
   102   51  119 1    
   103   52   53 2    
   104   52   54 am   BACKBONE|DICT|INTERRES
   105   54   55 1    
   106   54  120 1    
   107   55   56 1    
   108   55   57 1    
   109   55  121 1    
   110   56  122 1    
   111   56  123 1    
   112   56  124 1    
   113   57   58 2    
   114   57   59 am   BACKBONE|DICT|INTERRES
   115   59   60 1    
   116   59  125 1    
   117   60   61 1    
   118   60   62 1    
   119   60  126 1    
   120   61  127 1    
   121   61  128 1    
   122   61  129 1    
   123   62   63 2    
   124   62   64 am   BACKBONE|DICT|INTERRES
   125   64   65 1    
   126   64  130 1    
   127   65   66 1    
   128   65   69 1    
   129   65  131 1    
   130   66   67 am   BACKBONE|DICT|INTERRES
   131   66   68 2    
   132   67  132 1    
   133   67  133 1    
   134   69   70 1    
   135   69  134 1    
   136   69  135 1    
   137   70   71 1    
   138   71  136 1    
   139   71  137 1    
@<TRIPOS>SUBSTRUCTURE
     1 UNK         1 GROUP             0       ****    0 ROOT    
