@<TRIPOS>MOLECULE
3R136
137   139    1
SMALL
USER_CHARGES


@<TRIPOS>ATOM
      1 CA         31.9116   24.0140   -1.1461 C.3       0 UNK        -0.1979 
      2 C          30.7748   24.0011   -0.1362 C.2       0 UNK         0.4864 
      3 O          30.1077   25.0228    0.0430 O.2       0 UNK        -0.5359 
      4 N          30.5470   22.8564    0.5241 N.am      1 UNK        -0.4318 
      5 CA         29.4911   22.6701    1.5263 C.3       1 UNK         0.0824 
      6 C6         29.5728   21.3064    2.2577 C.3       12 UNK        -0.0944 
      7 S7         31.2236   20.9291    2.9406 S.3       12 UNK        -0.2672 
      8 C8         31.2300   21.8616    4.5131 C.3       12 UNK         0.0333 
      9 C9         31.3472   23.3728    4.3259 C.ar      12 UNK        -0.0807 
     10 C10        32.2575   23.9110    3.4083 C.ar      12 UNK        -0.0894 
     11 C11        32.3590   25.2939    3.2219 C.ar      12 UNK        -0.0804 
     12 C12        31.5343   26.1393    3.9672 C.ar      12 UNK        -0.0824 
     13 C13        30.6326   25.6224    4.9011 C.ar      12 UNK        -0.0762 
     14 C14        30.5461   24.2379    5.0798 C.ar      12 UNK        -0.0782 
     15 C15        29.7627   26.5711    5.7173 C.3       12 UNK         0.0230 
     16 S16        27.9813   26.4421    5.3374 S.3       12 UNK        -0.2608 
     17 C17        27.9246   26.5156    3.5169 C.3       12 UNK        -0.0989 
     18 CA         28.2680   27.8991    2.9140 C.3       5 UNK         0.0716 
     19 N          28.7548   27.7540    1.5404 N.am      5 UNK        -0.4135 
     20 C          29.2379   28.7392    0.7729 C.2       4 UNK         0.5031 
     21 O          29.3917   29.8957    1.1642 O.2       4 UNK        -0.5229 
     22 CA         29.5637   28.3838   -0.6868 C.3       4 UNK         0.0329 
     23 CB         31.0630   28.1021   -0.8681 C.3       4 UNK        -0.2001 
     24 N          28.7928   27.2229   -1.1410 N.am      4 UNK        -0.4303 
     25 C          27.5508   27.2997   -1.6365 C.2       3 UNK         0.5044 
     26 O          26.9416   28.3584   -1.7949 O.2       3 UNK        -0.5152 
     27 CA         26.8670   25.9718   -2.0064 C.3       3 UNK         0.0319 
     28 CB         27.6171   25.2624   -3.1468 C.3       3 UNK        -0.2001 
     29 N          26.6989   25.0417   -0.8857 N.am      3 UNK        -0.4354 
     30 C          26.0797   25.2912    0.2759 C.2       2 UNK         0.4964 
     31 O          25.6584   26.3972    0.6061 O.2       2 UNK        -0.5047 
     32 CA         25.9243   24.1166    1.2599 C.3       2 UNK         0.0288 
     33 CB         24.9425   23.0492    0.7345 C.3       2 UNK        -0.2113 
     34 N          27.2135   23.5444    1.6682 N.am      2 UNK        -0.4145 
     35 C          28.0968   22.8831    0.9076 C.2       1 UNK         0.5006 
     36 O          27.8682   22.4912   -0.2409 O.2       1 UNK        -0.5103 
     37 C          27.0909   28.8968    3.0040 C.2       5 UNK         0.5055 
     38 O          27.1188   29.7959    3.8448 O.2       5 UNK        -0.5220 
     39 N          26.1162   28.7768    2.0878 N.am      6 UNK        -0.4450 
     40 CA         24.9879   29.7036    1.9351 C.3       6 UNK         0.0367 
     41 CB         23.9677   29.1077    0.9524 C.3       6 UNK        -0.1929 
     42 C          25.4001   31.1165    1.4807 C.2       6 UNK         0.5070 
     43 O          24.6834   32.0739    1.7714 O.2       6 UNK        -0.5237 
     44 N          26.5526   31.2316    0.8064 N.am      7 UNK        -0.4739 
     45 CA         27.1821   32.5004    0.4263 C.3       7 UNK         0.0276 
     46 CB         28.0036   32.2903   -0.8582 C.3       7 UNK        -0.1927 
     47 C          28.0487   33.1003    1.5543 C.2       7 UNK         0.5013 
     48 O          28.6714   34.1401    1.3351 O.2       7 UNK        -0.5193 
     49 N          28.0730   32.4487    2.7281 N.am      8 UNK        -0.4253 
     50 CA         28.7956   32.8124    3.9502 C.3       8 UNK         0.0242 
     51 CB         28.3366   34.1844    4.4915 C.3       8 UNK        -0.2000 
     52 C          30.3264   32.6866    3.8346 C.2       8 UNK         0.4948 
     53 O          31.0448   33.3742    4.5642 O.2       8 UNK        -0.5275 
     54 N          30.8097   31.7927    2.9602 N.am      9 UNK        -0.4246 
     55 CA         32.2117   31.3724    2.9259 C.3       9 UNK         0.0261 
     56 CB         32.5362   30.8006    1.5370 C.3       9 UNK        -0.1959 
     57 C          32.4744   30.3134    4.0097 C.2       9 UNK         0.5033 
     58 O          31.5336   29.6800    4.4955 O.2       9 UNK        -0.5390 
     59 N          33.7537   30.1091    4.3348 N.am      10 UNK        -0.4215 
     60 CA         34.2274   29.0582    5.2305 C.3       10 UNK         0.0240 
     61 CB         34.7147   29.6818    6.5492 C.3       10 UNK        -0.1982 
     62 C          35.3600   28.3093    4.5239 C.2       10 UNK         0.4970 
     63 O          36.2365   28.9498    3.9388 O.2       10 UNK        -0.4916 
     64 N          35.3154   26.9764    4.5949 N.am      11 UNK        -0.4279 
     65 CA         36.3113   26.0665    4.0085 C.3       11 UNK         0.1003 
     66 C          37.5024   25.7523    4.9624 C.2       11 UNK         0.5709 
     67 N          37.5050   26.2126    6.2085 N.am      11 UNK        -0.7358 
     68 O          38.4555   25.0908    4.5574 O.2       11 UNK        -0.4999 
     69 C69        35.6272   24.7713    3.4909 C.3       12 UNK        -0.0954 
     70 S70        34.8377   24.9697    1.8548 S.3       12 UNK        -0.2268 
     71 C71        33.3088   25.9108    2.1969 C.3       12 UNK         0.0203 
     72 H72        32.6315   24.7909   -0.8915 H         1 UNK         0.0888 
     73 H73        32.4390   23.0609   -1.1773 H         1 UNK         0.0888 
     74 H74        31.5232   24.2224   -2.1425 H         1 UNK         0.0888 
     75 H75        31.1152   22.0436    0.3358 H         1 UNK         0.3017 
     76 H76        29.6348   23.4600    2.2640 H         1 UNK         0.0873 
     77 H77        28.8426   21.2612    3.0680 H         1 UNK         0.0745 
     78 H78        29.3131   20.4964    1.5729 H         1 UNK         0.0745 
     79 H79        30.3328   21.6064    5.0793 H         1 UNK         0.0705 
     80 H80        32.0776   21.5249    5.1111 H         1 UNK         0.0705 
     81 H81        32.8765   23.2447    2.8247 H         1 UNK         0.1334 
     82 H82        31.5917   27.2081    3.8162 H         1 UNK         0.1417 
     83 H83        29.8454   23.8383    5.8006 H         1 UNK         0.1562 
     84 H84        30.0774   27.6056    5.5718 H         1 UNK         0.0748 
     85 H85        29.9090   26.3624    6.7779 H         1 UNK         0.0748 
     86 H86        26.9329   26.1922    3.1991 H         1 UNK         0.0940 
     87 H87        28.6119   25.7588    3.1377 H         1 UNK         0.0940 
     88 H88        29.0975   28.3294    3.4790 H         1 UNK         0.0703 
     89 H89        28.7011   26.8331    1.1294 H         1 UNK         0.3081 
     90 H90        29.3092   29.2460   -1.3067 H         1 UNK         0.0719 
     91 H91        31.6480   29.0103   -0.7266 H         1 UNK         0.0809 
     92 H92        31.4260   27.3605   -0.1572 H         1 UNK         0.0809 
     93 H93        31.2808   27.7372   -1.8720 H         1 UNK         0.0809 
     94 H94        29.2133   26.3101   -0.9748 H         1 UNK         0.2990 
     95 H95        25.8661   26.2170   -2.3672 H         1 UNK         0.0690 
     96 H96        27.7721   25.9342   -3.9924 H         1 UNK         0.0788 
     97 H97        27.0541   24.4048   -3.5158 H         1 UNK         0.0788 
     98 H98        28.5971   24.9045   -2.8280 H         1 UNK         0.0788 
     99 H99        27.0687   24.1036   -1.0104 H         1 UNK         0.2993 
    100 H100       25.4814   24.5281    2.1685 H         1 UNK         0.0949 
    101 H101       24.8086   22.2457    1.4589 H         1 UNK         0.0767 
    102 H102       23.9602   23.4868    0.5515 H         1 UNK         0.0767 
    103 H103       25.2724   22.6017   -0.2031 H         1 UNK         0.0767 
    104 H104       27.4963   23.7788    2.6091 H         1 UNK         0.3013 
    105 H105       26.1265   27.9829    1.4497 H         1 UNK         0.3121 
    106 H106       24.5055   29.8038    2.9097 H         1 UNK         0.0774 
    107 H107       23.1122   29.7720    0.8227 H         1 UNK         0.0815 
    108 H108       24.4079   28.9431   -0.0323 H         1 UNK         0.0815 
    109 H109       23.5834   28.1526    1.3108 H         1 UNK         0.0815 
    110 H110       27.0924   30.3955    0.6295 H         1 UNK         0.2987 
    111 H111       26.3996   33.2298    0.2057 H         1 UNK         0.0949 
    112 H112       28.8730   31.6565   -0.6871 H         1 UNK         0.0806 
    113 H113       27.4038   31.8337   -1.6459 H         1 UNK         0.0806 
    114 H114       28.3719   33.2419   -1.2434 H         1 UNK         0.0806 
    115 H115       27.5572   31.5780    2.7916 H         1 UNK         0.3010 
    116 H116       28.5040   32.0646    4.6891 H         1 UNK         0.0829 
    117 H117       28.6669   35.0042    3.8532 H         1 UNK         0.0813 
    118 H118       27.2509   34.2365    4.5725 H         1 UNK         0.0813 
    119 H119       28.7427   34.3673    5.4870 H         1 UNK         0.0813 
    120 H120       30.1614   31.2286    2.4171 H         1 UNK         0.3038 
    121 H121       32.8519   32.2385    3.1073 H         1 UNK         0.0769 
    122 H122       32.0571   29.8338    1.3882 H         1 UNK         0.0811 
    123 H123       33.6093   30.6498    1.4151 H         1 UNK         0.0811 
    124 H124       32.2079   31.4677    0.7397 H         1 UNK         0.0811 
    125 H125       34.4807   30.6178    3.8483 H         1 UNK         0.3204 
    126 H126       33.4245   28.3517    5.4536 H         1 UNK         0.0748 
    127 H127       35.0713   28.9147    7.2375 H         1 UNK         0.0771 
    128 H128       35.5338   30.3839    6.3871 H         1 UNK         0.0771 
    129 H129       33.9095   30.2186    7.0513 H         1 UNK         0.0771 
    130 H130       34.5674   26.5325    5.1071 H         1 UNK         0.2980 
    131 H131       36.7701   26.5610    3.1501 H         1 UNK         0.0545 
    132 H132       38.2883   26.0050    6.8078 H         1 UNK         0.3459 
    133 H133       36.7376   26.7644    6.5545 H         1 UNK         0.3459 
    134 H134       34.9068   24.3907    4.2160 H         1 UNK         0.0616 
    135 H135       36.3576   23.9704    3.3620 H         1 UNK         0.0616 
    136 H136       33.5829   26.9236    2.4920 H         1 UNK         0.0634 
    137 H137       32.7641   26.0132    1.2594 H         1 UNK         0.0634 
@<TRIPOS>BOND
     1    1    2 1    
     2    1   72 1    
     3    1   73 1    
     4    1   74 1    
     5    2    3 2    
     6    2    4 am   BACKBONE|DICT|INTERRES
     7    4    5 1    
     8    4   75 1    
     9    5    6 1    
    10    5   35 1    
    11    5   76 1    
    12    6    7 1    
    13    6   77 1    
    14    6   78 1    
    15    7    8 1    
    16    8    9 1    
    17    8   79 1    
    18    8   80 1    
    19    9   10 ar   
    20    9   14 ar   
    21   10   11 ar   
    22   10   81 1    
    23   11   12 ar   
    24   11   71 1    
    25   12   13 ar   
    26   12   82 1    
    27   13   14 ar   
    28   13   15 1    
    29   14   83 1    
    30   15   16 1    
    31   15   84 1    
    32   15   85 1    
    33   16   17 1    
    34   17   18 1    
    35   17   86 1    
    36   17   87 1    
    37   18   19 1    
    38   18   37 1    
    39   18   88 1    
    40   19   20 am   BACKBONE|DICT|INTERRES
    41   19   89 1    
    42   20   21 2    
    43   20   22 1    
    44   22   23 1    
    45   22   24 1    
    46   22   90 1    
    47   23   91 1    
    48   23   92 1    
    49   23   93 1    
    50   24   25 am   BACKBONE|DICT|INTERRES
    51   24   94 1    
    52   25   26 2    
    53   25   27 1    
    54   27   28 1    
    55   27   29 1    
    56   27   95 1    
    57   28   96 1    
    58   28   97 1    
    59   28   98 1    
    60   29   30 am   BACKBONE|DICT|INTERRES
    61   29   99 1    
    62   30   31 2    
    63   30   32 1    
    64   32   33 1    
    65   32   34 1    
    66   32  100 1    
    67   33  101 1    
    68   33  102 1    
    69   33  103 1    
    70   34   35 am   BACKBONE|DICT|INTERRES
    71   34  104 1    
    72   35   36 2    
    73   37   38 2    
    74   37   39 am   BACKBONE|DICT|INTERRES
    75   39   40 1    
    76   39  105 1    
    77   40   41 1    
    78   40   42 1    
    79   40  106 1    
    80   41  107 1    
    81   41  108 1    
    82   41  109 1    
    83   42   43 2    
    84   42   44 am   BACKBONE|DICT|INTERRES
    85   44   45 1    
    86   44  110 1    
    87   45   46 1    
    88   45   47 1    
    89   45  111 1    
    90   46  112 1    
    91   46  113 1    
    92   46  114 1    
    93   47   48 2    
    94   47   49 am   BACKBONE|DICT|INTERRES
    95   49   50 1    
    96   49  115 1    
    97   50   51 1    
    98   50   52 1    
    99   50  116 1    
   100   51  117 1    
   101   51  118 1    
   102   51  119 1    
   103   52   53 2    
   104   52   54 am   BACKBONE|DICT|INTERRES
   105   54   55 1    
   106   54  120 1    
   107   55   56 1    
   108   55   57 1    
   109   55  121 1    
   110   56  122 1    
   111   56  123 1    
   112   56  124 1    
   113   57   58 2    
   114   57   59 am   BACKBONE|DICT|INTERRES
   115   59   60 1    
   116   59  125 1    
   117   60   61 1    
   118   60   62 1    
   119   60  126 1    
   120   61  127 1    
   121   61  128 1    
   122   61  129 1    
   123   62   63 2    
   124   62   64 am   BACKBONE|DICT|INTERRES
   125   64   65 1    
   126   64  130 1    
   127   65   66 1    
   128   65   69 1    
   129   65  131 1    
   130   66   67 am   BACKBONE|DICT|INTERRES
   131   66   68 2    
   132   67  132 1    
   133   67  133 1    
   134   69   70 1    
   135   69  134 1    
   136   69  135 1    
   137   70   71 1    
   138   71  136 1    
   139   71  137 1    
@<TRIPOS>SUBSTRUCTURE
     1 UNK         1 GROUP             0       ****    0 ROOT    
