@<TRIPOS>MOLECULE
3R136
137   139    1
SMALL
USER_CHARGES


@<TRIPOS>ATOM
      1 CA         25.9243   18.2500    3.0844 C.3       0 UNK        -0.1979 
      2 C          26.3425   19.2128    1.9826 C.2       0 UNK         0.4864 
      3 O          25.9040   19.0629    0.8407 O.2       0 UNK        -0.5359 
      4 N          27.1933   20.1922    2.3139 N.am      1 UNK        -0.4318 
      5 CA         27.6691   21.2359    1.3996 C.3       1 UNK         0.0824 
      6 C6         28.8798   22.0027    1.9819 C.3       12 UNK        -0.0944 
      7 S7         30.3202   20.9203    2.2427 S.3       12 UNK        -0.2672 
      8 C8         31.3942   22.0120    3.2378 C.3       12 UNK         0.0333 
      9 C9         31.9439   23.2397    2.5073 C.ar      12 UNK        -0.0807 
     10 C10        32.3458   24.3445    3.2638 C.ar      12 UNK        -0.0894 
     11 C11        32.9046   25.4692    2.6506 C.ar      12 UNK        -0.0804 
     12 C12        33.0539   25.4922    1.2607 C.ar      12 UNK        -0.0824 
     13 C13        32.6539   24.3981    0.4845 C.ar      12 UNK        -0.0762 
     14 C14        32.1079   23.2761    1.1161 C.ar      12 UNK        -0.0782 
     15 C15        32.8682   24.3751   -1.0270 C.3       12 UNK         0.0230 
     16 S16        32.3718   25.9059   -1.8837 S.3       12 UNK        -0.2608 
     17 C17        30.5603   25.9194   -1.6627 C.3       12 UNK        -0.0989 
     18 CA         30.0628   27.3116   -1.1977 C.3       5 UNK         0.0716 
     19 N          28.6640   27.5502   -1.5557 N.am      5 UNK        -0.4135 
     20 C          28.1945   28.6926   -2.0800 C.2       4 UNK         0.5031 
     21 O          28.9043   29.6422   -2.4134 O.2       4 UNK        -0.5229 
     22 CA         26.6691   28.8084   -2.2661 C.3       4 UNK         0.0329 
     23 CB         26.2628   28.3473   -3.6752 C.3       4 UNK        -0.2001 
     24 N          25.9118   28.0463   -1.2724 N.am      4 UNK        -0.4303 
     25 C          25.8807   28.3182    0.0402 C.2       3 UNK         0.5044 
     26 O          26.3695   29.3318    0.5366 O.2       3 UNK        -0.5152 
     27 CA         25.2156   27.2757    0.9600 C.3       3 UNK         0.0319 
     28 CB         23.8453   27.7796    1.4405 C.3       3 UNK        -0.2001 
     29 N          25.0549   25.9428    0.3616 N.am      3 UNK        -0.4354 
     30 C          26.0552   25.1455   -0.0375 C.2       2 UNK         0.4964 
     31 O          27.2471   25.4651   -0.0058 O.2       2 UNK        -0.5047 
     32 CA         25.6571   23.7934   -0.6441 C.3       2 UNK         0.0288 
     33 CB         25.7067   23.8665   -2.1792 C.3       2 UNK        -0.2113 
     34 N          26.5587   22.7394   -0.1822 N.am      2 UNK        -0.4145 
     35 C          26.5409   22.2272    1.0553 C.2       1 UNK         0.5006 
     36 O          25.7091   22.5356    1.9143 O.2       1 UNK        -0.5103 
     37 C          30.2454   27.5199    0.3142 C.2       5 UNK         0.5055 
     38 O          31.1084   28.2983    0.7204 O.2       5 UNK        -0.5220 
     39 N          29.3996   26.8678    1.1244 N.am      6 UNK        -0.4450 
     40 CA         29.3867   26.9558    2.5855 C.3       6 UNK         0.0367 
     41 CB         28.7858   25.6584    3.1548 C.3       6 UNK        -0.1929 
     42 C          28.6609   28.2213    3.0817 C.2       6 UNK         0.5070 
     43 O          27.7498   28.1328    3.9072 O.2       6 UNK        -0.5237 
     44 N          29.0731   29.3801    2.5581 N.am      7 UNK        -0.4739 
     45 CA         28.6016   30.7024    2.9632 C.3       7 UNK         0.0276 
     46 CB         28.9445   31.7065    1.8505 C.3       7 UNK        -0.1927 
     47 C          29.2537   31.1251    4.2881 C.2       7 UNK         0.5013 
     48 O          30.3570   30.6719    4.5970 O.2       7 UNK        -0.5193 
     49 N          28.5998   32.0354    5.0221 N.am      8 UNK        -0.4253 
     50 CA         29.0680   32.5561    6.3154 C.3       8 UNK         0.0242 
     51 CB         27.9957   33.4866    6.9057 C.3       8 UNK        -0.2000 
     52 C          30.4325   33.2734    6.2635 C.2       8 UNK         0.4948 
     53 O          31.1432   33.2889    7.2691 O.2       8 UNK        -0.5275 
     54 N          30.7732   33.8420    5.0995 N.am      9 UNK        -0.4246 
     55 CA         32.0552   34.4941    4.8287 C.3       9 UNK         0.0261 
     56 CB         31.8195   35.6355    3.8238 C.3       9 UNK        -0.1959 
     57 C          33.1354   33.5298    4.2987 C.2       9 UNK         0.5033 
     58 O          34.2917   33.9447    4.1980 O.2       9 UNK        -0.5390 
     59 N          32.7667   32.2916    3.9398 N.am      10 UNK        -0.4215 
     60 CA         33.6765   31.2899    3.3818 C.3       10 UNK         0.0240 
     61 CB         32.9216   30.4601    2.3316 C.3       10 UNK        -0.1982 
     62 C          34.2331   30.3842    4.4892 C.2       10 UNK         0.4970 
     63 O          33.6176   30.2555    5.5498 O.2       10 UNK        -0.4916 
     64 N          35.3859   29.7628    4.2068 N.am      11 UNK        -0.4279 
     65 CA         36.1153   28.8439    5.1015 C.3       11 UNK         0.1003 
     66 C          36.6556   29.4971    6.4137 C.2       11 UNK         0.5709 
     67 N          36.7731   30.8175    6.4951 N.am      11 UNK        -0.7358 
     68 O          37.0133   28.8009    7.3614 O.2       11 UNK        -0.4999 
     69 C69        35.3463   27.5129    5.3533 C.3       12 UNK        -0.0954 
     70 S70        35.1524   26.5137    3.8386 S.3       12 UNK        -0.2268 
     71 C71        33.3699   26.6437    3.4984 C.3       12 UNK         0.0203 
     72 H72        26.3990   18.4887    4.0361 H         1 UNK         0.0888 
     73 H73        24.8445   18.2879    3.2253 H         1 UNK         0.0888 
     74 H74        26.1983   17.2301    2.8157 H         1 UNK         0.0888 
     75 H75        27.5144   20.2717    3.2677 H         1 UNK         0.3017 
     76 H76        27.9836   20.7467    0.4747 H         1 UNK         0.0873 
     77 H77        28.6133   22.4726    2.9308 H         1 UNK         0.0745 
     78 H78        29.1849   22.8087    1.3110 H         1 UNK         0.0745 
     79 H79        30.8397   22.3236    4.1245 H         1 UNK         0.0705 
     80 H80        32.2397   21.4234    3.5958 H         1 UNK         0.0705 
     81 H81        32.2430   24.3218    4.3403 H         1 UNK         0.1334 
     82 H82        33.4948   26.3583    0.7862 H         1 UNK         0.1417 
     83 H83        31.8305   22.4198    0.5179 H         1 UNK         0.1562 
     84 H84        32.3348   23.5392   -1.4825 H         1 UNK         0.0748 
     85 H85        33.9277   24.2014   -1.2188 H         1 UNK         0.0748 
     86 H86        30.2422   25.1248   -0.9843 H         1 UNK         0.0940 
     87 H87        30.1237   25.6730   -2.6320 H         1 UNK         0.0940 
     88 H88        30.6790   28.0634   -1.6962 H         1 UNK         0.0703 
     89 H89        28.0031   26.8378   -1.2672 H         1 UNK         0.3081 
     90 H90        26.4019   29.8619   -2.1583 H         1 UNK         0.0719 
     91 H91        26.7951   28.9157   -4.4393 H         1 UNK         0.0809 
     92 H92        26.4885   27.2924   -3.8379 H         1 UNK         0.0809 
     93 H93        25.1967   28.4944   -3.8494 H         1 UNK         0.0809 
     94 H94        25.4503   27.2084   -1.5935 H         1 UNK         0.2990 
     95 H95        25.8631   27.1660    1.8327 H         1 UNK         0.0690 
     96 H96        23.9351   28.7543    1.9228 H         1 UNK         0.0788 
     97 H97        23.4056   27.1002    2.1710 H         1 UNK         0.0788 
     98 H98        23.1422   27.8885    0.6138 H         1 UNK         0.0788 
     99 H99        24.1060   25.6060    0.2776 H         1 UNK         0.2993 
    100 H100       24.6396   23.5420   -0.3357 H         1 UNK         0.0949 
    101 H101       25.4190   22.9164   -2.6302 H         1 UNK         0.0767 
    102 H102       25.0187   24.6234   -2.5584 H         1 UNK         0.0767 
    103 H103       26.7040   24.1209   -2.5416 H         1 UNK         0.0767 
    104 H104       27.2947   22.4669   -0.8172 H         1 UNK         0.3013 
    105 H105       28.6722   26.2868    0.7117 H         1 UNK         0.3121 
    106 H106       30.4164   27.0245    2.9414 H         1 UNK         0.0774 
    107 H107       28.7907   25.6681    4.2453 H         1 UNK         0.0815 
    108 H108       27.7548   25.5119    2.8305 H         1 UNK         0.0815 
    109 H109       29.3657   24.7927    2.8392 H         1 UNK         0.0815 
    110 H110       29.8527   29.3455    1.9099 H         1 UNK         0.2987 
    111 H111       27.5173   30.6653    3.0912 H         1 UNK         0.0949 
    112 H112       28.5701   32.7028    2.0884 H         1 UNK         0.0806 
    113 H113       30.0212   31.7884    1.6961 H         1 UNK         0.0806 
    114 H114       28.4928   31.4111    0.9027 H         1 UNK         0.0806 
    115 H115       27.7060   32.3751    4.6954 H         1 UNK         0.3010 
    116 H116       29.1840   31.7015    6.9856 H         1 UNK         0.0829 
    117 H117       27.8096   34.3481    6.2630 H         1 UNK         0.0813 
    118 H118       27.0503   32.9633    7.0507 H         1 UNK         0.0813 
    119 H119       28.3037   33.8684    7.8803 H         1 UNK         0.0813 
    120 H120       30.1181   33.7902    4.3332 H         1 UNK         0.3038 
    121 H121       32.4393   34.9328    5.7523 H         1 UNK         0.0769 
    122 H122       31.4487   35.2632    2.8679 H         1 UNK         0.0811 
    123 H123       32.7442   36.1791    3.6245 H         1 UNK         0.0811 
    124 H124       31.0987   36.3585    4.2062 H         1 UNK         0.0811 
    125 H125       31.8406   31.9531    4.1832 H         1 UNK         0.3204 
    126 H126       34.5118   31.7874    2.8841 H         1 UNK         0.0748 
    127 H127       33.5860   29.7515    1.8358 H         1 UNK         0.0771 
    128 H128       32.1108   29.8837    2.7778 H         1 UNK         0.0771 
    129 H129       32.4929   31.0931    1.5548 H         1 UNK         0.0771 
    130 H130       35.8240   29.9316    3.3129 H         1 UNK         0.2980 
    131 H131       37.0240   28.5838    4.5577 H         1 UNK         0.0545 
    132 H132       37.1352   31.2281    7.3411 H         1 UNK         0.3459 
    133 H133       36.4946   31.4059    5.7265 H         1 UNK         0.3459 
    134 H134       34.3766   27.7012    5.8153 H         1 UNK         0.0616 
    135 H135       35.8906   26.8822    6.0579 H         1 UNK         0.0616 
    136 H136       32.8104   26.6703    4.4346 H         1 UNK         0.0634 
    137 H137       33.1635   27.5838    2.9866 H         1 UNK         0.0634 
@<TRIPOS>BOND
     1    1    2 1    
     2    1   72 1    
     3    1   73 1    
     4    1   74 1    
     5    2    3 2    
     6    2    4 am   BACKBONE|DICT|INTERRES
     7    4    5 1    
     8    4   75 1    
     9    5    6 1    
    10    5   35 1    
    11    5   76 1    
    12    6    7 1    
    13    6   77 1    
    14    6   78 1    
    15    7    8 1    
    16    8    9 1    
    17    8   79 1    
    18    8   80 1    
    19    9   10 ar   
    20    9   14 ar   
    21   10   11 ar   
    22   10   81 1    
    23   11   12 ar   
    24   11   71 1    
    25   12   13 ar   
    26   12   82 1    
    27   13   14 ar   
    28   13   15 1    
    29   14   83 1    
    30   15   16 1    
    31   15   84 1    
    32   15   85 1    
    33   16   17 1    
    34   17   18 1    
    35   17   86 1    
    36   17   87 1    
    37   18   19 1    
    38   18   37 1    
    39   18   88 1    
    40   19   20 am   BACKBONE|DICT|INTERRES
    41   19   89 1    
    42   20   21 2    
    43   20   22 1    
    44   22   23 1    
    45   22   24 1    
    46   22   90 1    
    47   23   91 1    
    48   23   92 1    
    49   23   93 1    
    50   24   25 am   BACKBONE|DICT|INTERRES
    51   24   94 1    
    52   25   26 2    
    53   25   27 1    
    54   27   28 1    
    55   27   29 1    
    56   27   95 1    
    57   28   96 1    
    58   28   97 1    
    59   28   98 1    
    60   29   30 am   BACKBONE|DICT|INTERRES
    61   29   99 1    
    62   30   31 2    
    63   30   32 1    
    64   32   33 1    
    65   32   34 1    
    66   32  100 1    
    67   33  101 1    
    68   33  102 1    
    69   33  103 1    
    70   34   35 am   BACKBONE|DICT|INTERRES
    71   34  104 1    
    72   35   36 2    
    73   37   38 2    
    74   37   39 am   BACKBONE|DICT|INTERRES
    75   39   40 1    
    76   39  105 1    
    77   40   41 1    
    78   40   42 1    
    79   40  106 1    
    80   41  107 1    
    81   41  108 1    
    82   41  109 1    
    83   42   43 2    
    84   42   44 am   BACKBONE|DICT|INTERRES
    85   44   45 1    
    86   44  110 1    
    87   45   46 1    
    88   45   47 1    
    89   45  111 1    
    90   46  112 1    
    91   46  113 1    
    92   46  114 1    
    93   47   48 2    
    94   47   49 am   BACKBONE|DICT|INTERRES
    95   49   50 1    
    96   49  115 1    
    97   50   51 1    
    98   50   52 1    
    99   50  116 1    
   100   51  117 1    
   101   51  118 1    
   102   51  119 1    
   103   52   53 2    
   104   52   54 am   BACKBONE|DICT|INTERRES
   105   54   55 1    
   106   54  120 1    
   107   55   56 1    
   108   55   57 1    
   109   55  121 1    
   110   56  122 1    
   111   56  123 1    
   112   56  124 1    
   113   57   58 2    
   114   57   59 am   BACKBONE|DICT|INTERRES
   115   59   60 1    
   116   59  125 1    
   117   60   61 1    
   118   60   62 1    
   119   60  126 1    
   120   61  127 1    
   121   61  128 1    
   122   61  129 1    
   123   62   63 2    
   124   62   64 am   BACKBONE|DICT|INTERRES
   125   64   65 1    
   126   64  130 1    
   127   65   66 1    
   128   65   69 1    
   129   65  131 1    
   130   66   67 am   BACKBONE|DICT|INTERRES
   131   66   68 2    
   132   67  132 1    
   133   67  133 1    
   134   69   70 1    
   135   69  134 1    
   136   69  135 1    
   137   70   71 1    
   138   71  136 1    
   139   71  137 1    
@<TRIPOS>SUBSTRUCTURE
     1 UNK         1 GROUP             0       ****    0 ROOT    
