@<TRIPOS>MOLECULE
3R136
137   139    1
SMALL
USER_CHARGES


@<TRIPOS>ATOM
      1 CA         30.0399   27.5817    0.6943 C.3       0 UNK        -0.1979 
      2 C          29.6226   26.1700    0.3237 C.2       0 UNK         0.4864 
      3 O          28.4252   25.8933    0.2388 O.2       0 UNK        -0.5359 
      4 N          30.6008   25.2860    0.0879 N.am      1 UNK        -0.4318 
      5 CA         30.4389   23.8502   -0.1885 C.3       1 UNK         0.0824 
      6 C6         31.8275   23.1693   -0.3281 C.3       12 UNK        -0.0944 
      7 S7         31.8001   21.3968    0.1022 S.3       12 UNK        -0.2672 
      8 C8         32.4547   21.4163    1.8019 C.3       12 UNK         0.0333 
      9 C9         31.5819   22.2239    2.7543 C.ar      12 UNK        -0.0807 
     10 C10        32.0991   23.3536    3.3970 C.ar      12 UNK        -0.0894 
     11 C11        31.3135   24.0751    4.2999 C.ar      12 UNK        -0.0804 
     12 C12        30.0043   23.6620    4.5557 C.ar      12 UNK        -0.0824 
     13 C13        29.4600   22.5607    3.8893 C.ar      12 UNK        -0.0762 
     14 C14        30.2605   21.8354    3.0016 C.ar      12 UNK        -0.0782 
     15 C15        28.0147   22.1468    4.1343 C.3       12 UNK         0.0230 
     16 S16        26.8367   23.1827    3.2006 S.3       12 UNK        -0.2608 
     17 C17        26.7325   24.6719    4.2531 C.3       12 UNK        -0.0989 
     18 CA         27.4819   25.8824    3.6260 C.3       5 UNK         0.0716 
     19 N          26.8089   26.4088    2.4305 N.am      5 UNK        -0.4135 
     20 C          25.6242   27.0306    2.3703 C.2       4 UNK         0.5031 
     21 O          24.9190   27.2745    3.3495 O.2       4 UNK        -0.5229 
     22 CA         25.1706   27.5086    0.9819 C.3       4 UNK         0.0329 
     23 CB         25.8316   28.8552    0.6455 C.3       4 UNK        -0.2001 
     24 N          25.4324   26.5628   -0.1071 N.am      4 UNK        -0.4303 
     25 C          24.8799   25.3463   -0.2182 C.2       3 UNK         0.5044 
     26 O          24.1615   24.8328    0.6396 O.2       3 UNK        -0.5152 
     27 CA         25.1070   24.6049   -1.5418 C.3       3 UNK         0.0319 
     28 CB         24.0789   25.1199   -2.5767 C.3       3 UNK        -0.2001 
     29 N          26.4892   24.7355   -2.0246 N.am      3 UNK        -0.4354 
     30 C          26.9739   24.1499   -3.1327 C.2       2 UNK         0.4964 
     31 O          26.3062   23.4401   -3.8859 O.2       2 UNK        -0.5047 
     32 CA         28.4593   24.3736   -3.4744 C.3       2 UNK         0.0288 
     33 CB         28.6260   25.6316   -4.3425 C.3       2 UNK        -0.2113 
     34 N          29.3372   24.4741   -2.3086 N.am      2 UNK        -0.4145 
     35 C          29.5198   23.5149   -1.3888 C.2       1 UNK         0.5006 
     36 O          28.9863   22.4060   -1.4534 O.2       1 UNK        -0.5103 
     37 C          27.8648   26.9557    4.6783 C.2       5 UNK         0.5055 
     38 O          28.2586   26.5895    5.7872 O.2       5 UNK        -0.5220 
     39 N          27.7838   28.2484    4.3310 N.am      6 UNK        -0.4450 
     40 CA         28.1049   29.3760    5.2102 C.3       6 UNK         0.0367 
     41 CB         27.0079   29.5521    6.2841 C.3       6 UNK        -0.1929 
     42 C          28.3390   30.6651    4.4031 C.2       6 UNK         0.5070 
     43 O          28.0116   31.7525    4.8818 O.2       6 UNK        -0.5237 
     44 N          28.8937   30.5490    3.1871 N.am      7 UNK        -0.4739 
     45 CA         29.1359   31.6767    2.2759 C.3       7 UNK         0.0276 
     46 CB         29.1424   31.1786    0.8197 C.3       7 UNK        -0.1927 
     47 C          30.4112   32.4615    2.6415 C.2       7 UNK         0.5013 
     48 O          31.3420   32.5433    1.8360 O.2       7 UNK        -0.5193 
     49 N          30.4252   33.0163    3.8618 N.am      8 UNK        -0.4253 
     50 CA         31.4739   33.8540    4.4527 C.3       8 UNK         0.0242 
     51 CB         31.4127   35.2752    3.8471 C.3       8 UNK        -0.2000 
     52 C          32.8607   33.1882    4.3645 C.2       8 UNK         0.4948 
     53 O          33.0390   32.0993    4.9134 O.2       8 UNK        -0.5275 
     54 N          33.7996   33.8192    3.6461 N.am      9 UNK        -0.4246 
     55 CA         35.1805   33.3730    3.4356 C.3       9 UNK         0.0261 
     56 CB         35.9291   34.4415    2.6214 C.3       9 UNK        -0.1959 
     57 C          35.3385   31.9879    2.7770 C.2       9 UNK         0.5033 
     58 O          36.4222   31.4106    2.8772 O.2       9 UNK        -0.5390 
     59 N          34.2816   31.4644    2.1362 N.am      10 UNK        -0.4215 
     60 CA         34.2500   30.1040    1.5920 C.3       10 UNK         0.0240 
     61 CB         33.0384   29.9526    0.6610 C.3       10 UNK        -0.1982 
     62 C          34.2226   29.0112    2.6784 C.2       10 UNK         0.4970 
     63 O          34.6563   27.8936    2.3957 O.2       10 UNK        -0.4916 
     64 N          33.7206   29.3412    3.8768 N.am      11 UNK        -0.4279 
     65 CA         33.6376   28.4366    5.0342 C.3       11 UNK         0.1003 
     66 C          34.3366   28.9987    6.3021 C.2       11 UNK         0.5709 
     67 N          34.4976   30.3058    6.4623 N.am      11 UNK        -0.7358 
     68 O          34.7621   28.2244    7.1559 O.2       11 UNK        -0.4999 
     69 C69        32.1709   28.0335    5.3383 C.3       12 UNK        -0.0954 
     70 S70        31.5187   26.8336    4.1300 S.3       12 UNK        -0.2268 
     71 C71        31.8783   25.2877    5.0209 C.3       12 UNK         0.0203 
     72 H72        31.0830   27.6241    1.0066 H         1 UNK         0.0888 
     73 H73        29.9052   28.2417   -0.1617 H         1 UNK         0.0888 
     74 H74        29.4285   27.9481    1.5167 H         1 UNK         0.0888 
     75 H75        31.5580   25.5991    0.1628 H         1 UNK         0.3017 
     76 H76        29.9379   23.4462    0.6930 H         1 UNK         0.0873 
     77 H77        32.5582   23.6547    0.3211 H         1 UNK         0.0745 
     78 H78        32.2219   23.2819   -1.3400 H         1 UNK         0.0745 
     79 H79        32.5199   20.3899    2.1654 H         1 UNK         0.0705 
     80 H80        33.4761   21.8000    1.7852 H         1 UNK         0.0705 
     81 H81        33.1162   23.6674    3.2050 H         1 UNK         0.1334 
     82 H82        29.4058   24.2144    5.2654 H         1 UNK         0.1417 
     83 H83        29.8549   20.9718    2.4917 H         1 UNK         0.1562 
     84 H84        27.7871   22.1811    5.2007 H         1 UNK         0.0748 
     85 H85        27.8693   21.1081    3.8336 H         1 UNK         0.0748 
     86 H86        27.1137   24.4204    5.2431 H         1 UNK         0.0940 
     87 H87        25.6801   24.9117    4.4112 H         1 UNK         0.0940 
     88 H88        28.4438   25.5229    3.2596 H         1 UNK         0.0703 
     89 H89        27.2995   26.2337    1.5529 H         1 UNK         0.3081 
     90 H90        24.0904   27.6626    1.0293 H         1 UNK         0.0719 
     91 H91        25.4165   29.2837   -0.2670 H         1 UNK         0.0809 
     92 H92        26.9071   28.7457    0.5046 H         1 UNK         0.0809 
     93 H93        25.6746   29.5838    1.4425 H         1 UNK         0.0809 
     94 H94        25.9958   26.9052   -0.8710 H         1 UNK         0.2990 
     95 H95        24.9186   23.5453   -1.3572 H         1 UNK         0.0690 
     96 H96        24.0197   24.4765   -3.4536 H         1 UNK         0.0788 
     97 H97        24.3196   26.1278   -2.9163 H         1 UNK         0.0788 
     98 H98        23.0744   25.1515   -2.1515 H         1 UNK         0.0788 
     99 H99        27.1371   25.2156   -1.4080 H         1 UNK         0.2993 
    100 H100       28.7901   23.5105   -4.0562 H         1 UNK         0.0949 
    101 H101       29.6561   25.7481   -4.6801 H         1 UNK         0.0767 
    102 H102       27.9997   25.5760   -5.2342 H         1 UNK         0.0767 
    103 H103       28.3438   26.5361   -3.8020 H         1 UNK         0.0767 
    104 H104       29.8092   25.3551   -2.1692 H         1 UNK         0.3013 
    105 H105       27.4150   28.4828    3.4209 H         1 UNK         0.3121 
    106 H106       29.0478   29.1590    5.7161 H         1 UNK         0.0774 
    107 H107       27.2474   30.3703    6.9644 H         1 UNK         0.0815 
    108 H108       26.0402   29.7727    5.8323 H         1 UNK         0.0815 
    109 H109       26.8939   28.6582    6.8968 H         1 UNK         0.0815 
    110 H110       29.2364   29.6469    2.8942 H         1 UNK         0.2987 
    111 H111       28.3048   32.3808    2.3630 H         1 UNK         0.0949 
    112 H112       29.9421   30.4648    0.6363 H         1 UNK         0.0806 
    113 H113       28.1969   30.7084    0.5554 H         1 UNK         0.0806 
    114 H114       29.2883   32.0084    0.1267 H         1 UNK         0.0806 
    115 H115       29.6215   32.8231    4.4530 H         1 UNK         0.3010 
    116 H116       31.2459   33.9348    5.5166 H         1 UNK         0.0829 
    117 H117       30.4325   35.7236    4.0105 H         1 UNK         0.0813 
    118 H118       32.1426   35.9391    4.3128 H         1 UNK         0.0813 
    119 H119       31.5933   35.2747    2.7713 H         1 UNK         0.0813 
    120 H120       33.5400   34.6883    3.2024 H         1 UNK         0.3038 
    121 H121       35.6477   33.3057    4.4202 H         1 UNK         0.0769 
    122 H122       36.9735   34.1621    2.4746 H         1 UNK         0.0811 
    123 H123       35.9245   35.4059    3.1297 H         1 UNK         0.0811 
    124 H124       35.4870   34.5781    1.6336 H         1 UNK         0.0811 
    125 H125       33.4185   31.9970    2.0887 H         1 UNK         0.3204 
    126 H126       35.1548   29.9583    0.9979 H         1 UNK         0.0748 
    127 H127       33.0620   28.9923    0.1444 H         1 UNK         0.0771 
    128 H128       32.1054   29.9999    1.2210 H         1 UNK         0.0771 
    129 H129       33.0156   30.7321   -0.1008 H         1 UNK         0.0771 
    130 H130       33.4185   30.2946    4.0421 H         1 UNK         0.2980 
    131 H131       34.1891   27.5210    4.8119 H         1 UNK         0.0545 
    132 H132       34.0592   30.9730    5.8317 H         1 UNK         0.3459 
    133 H133       34.9663   30.6387    7.2891 H         1 UNK         0.3459 
    134 H134       31.5276   28.9149    5.3350 H         1 UNK         0.0616 
    135 H135       32.0745   27.6021    6.3365 H         1 UNK         0.0616 
    136 H136       32.9577   25.1861    5.1437 H         1 UNK         0.0634 
    137 H137       31.4561   25.3419    6.0256 H         1 UNK         0.0634 
@<TRIPOS>BOND
     1    1    2 1    
     2    1   72 1    
     3    1   73 1    
     4    1   74 1    
     5    2    3 2    
     6    2    4 am   BACKBONE|DICT|INTERRES
     7    4    5 1    
     8    4   75 1    
     9    5    6 1    
    10    5   35 1    
    11    5   76 1    
    12    6    7 1    
    13    6   77 1    
    14    6   78 1    
    15    7    8 1    
    16    8    9 1    
    17    8   79 1    
    18    8   80 1    
    19    9   10 ar   
    20    9   14 ar   
    21   10   11 ar   
    22   10   81 1    
    23   11   12 ar   
    24   11   71 1    
    25   12   13 ar   
    26   12   82 1    
    27   13   14 ar   
    28   13   15 1    
    29   14   83 1    
    30   15   16 1    
    31   15   84 1    
    32   15   85 1    
    33   16   17 1    
    34   17   18 1    
    35   17   86 1    
    36   17   87 1    
    37   18   19 1    
    38   18   37 1    
    39   18   88 1    
    40   19   20 am   BACKBONE|DICT|INTERRES
    41   19   89 1    
    42   20   21 2    
    43   20   22 1    
    44   22   23 1    
    45   22   24 1    
    46   22   90 1    
    47   23   91 1    
    48   23   92 1    
    49   23   93 1    
    50   24   25 am   BACKBONE|DICT|INTERRES
    51   24   94 1    
    52   25   26 2    
    53   25   27 1    
    54   27   28 1    
    55   27   29 1    
    56   27   95 1    
    57   28   96 1    
    58   28   97 1    
    59   28   98 1    
    60   29   30 am   BACKBONE|DICT|INTERRES
    61   29   99 1    
    62   30   31 2    
    63   30   32 1    
    64   32   33 1    
    65   32   34 1    
    66   32  100 1    
    67   33  101 1    
    68   33  102 1    
    69   33  103 1    
    70   34   35 am   BACKBONE|DICT|INTERRES
    71   34  104 1    
    72   35   36 2    
    73   37   38 2    
    74   37   39 am   BACKBONE|DICT|INTERRES
    75   39   40 1    
    76   39  105 1    
    77   40   41 1    
    78   40   42 1    
    79   40  106 1    
    80   41  107 1    
    81   41  108 1    
    82   41  109 1    
    83   42   43 2    
    84   42   44 am   BACKBONE|DICT|INTERRES
    85   44   45 1    
    86   44  110 1    
    87   45   46 1    
    88   45   47 1    
    89   45  111 1    
    90   46  112 1    
    91   46  113 1    
    92   46  114 1    
    93   47   48 2    
    94   47   49 am   BACKBONE|DICT|INTERRES
    95   49   50 1    
    96   49  115 1    
    97   50   51 1    
    98   50   52 1    
    99   50  116 1    
   100   51  117 1    
   101   51  118 1    
   102   51  119 1    
   103   52   53 2    
   104   52   54 am   BACKBONE|DICT|INTERRES
   105   54   55 1    
   106   54  120 1    
   107   55   56 1    
   108   55   57 1    
   109   55  121 1    
   110   56  122 1    
   111   56  123 1    
   112   56  124 1    
   113   57   58 2    
   114   57   59 am   BACKBONE|DICT|INTERRES
   115   59   60 1    
   116   59  125 1    
   117   60   61 1    
   118   60   62 1    
   119   60  126 1    
   120   61  127 1    
   121   61  128 1    
   122   61  129 1    
   123   62   63 2    
   124   62   64 am   BACKBONE|DICT|INTERRES
   125   64   65 1    
   126   64  130 1    
   127   65   66 1    
   128   65   69 1    
   129   65  131 1    
   130   66   67 am   BACKBONE|DICT|INTERRES
   131   66   68 2    
   132   67  132 1    
   133   67  133 1    
   134   69   70 1    
   135   69  134 1    
   136   69  135 1    
   137   70   71 1    
   138   71  136 1    
   139   71  137 1    
@<TRIPOS>SUBSTRUCTURE
     1 UNK         1 GROUP             0       ****    0 ROOT    
