@<TRIPOS>MOLECULE
3R136
137   139    1
SMALL
USER_CHARGES


@<TRIPOS>ATOM
      1 CA         31.2122   19.2668    3.8557 C.3       0 UNK        -0.1979 
      2 C          32.5171   19.5911    3.1306 C.2       0 UNK         0.4864 
      3 O          33.5391   18.9755    3.4307 O.2       0 UNK        -0.5359 
      4 N          32.5416   20.5254    2.1682 N.am      1 UNK        -0.4318 
      5 CA         31.4433   21.4058    1.7505 C.3       1 UNK         0.0824 
      6 C6         31.7574   22.0923    0.3888 C.3       12 UNK        -0.0944 
      7 S7         30.4107   21.9213   -0.8291 S.3       12 UNK        -0.2672 
      8 C8         29.2560   23.2515   -0.3701 C.3       12 UNK         0.0333 
      9 C9         29.8365   24.6433   -0.5703 C.ar      12 UNK        -0.0807 
     10 C10        30.3697   25.3593    0.5074 C.ar      12 UNK        -0.0894 
     11 C11        30.8627   26.6538    0.3252 C.ar      12 UNK        -0.0804 
     12 C12        30.8055   27.2368   -0.9428 C.ar      12 UNK        -0.0824 
     13 C13        30.2310   26.5504   -2.0157 C.ar      12 UNK        -0.0762 
     14 C14        29.7717   25.2446   -1.8300 C.ar      12 UNK        -0.0782 
     15 C15        30.0746   27.2232   -3.3692 C.3       12 UNK         0.0230 
     16 S16        28.4180   27.9647   -3.5443 S.3       12 UNK        -0.2608 
     17 C17        28.5649   29.4576   -2.5032 C.3       12 UNK        -0.0989 
     18 CA         27.4301   29.6204   -1.4568 C.3       5 UNK         0.0716 
     19 N          27.2317   28.4144   -0.6307 N.am      5 UNK        -0.4135 
     20 C          26.1555   28.1876    0.1420 C.2       4 UNK         0.5031 
     21 O          25.3540   29.0674    0.4558 O.2       4 UNK        -0.5229 
     22 CA         25.8532   26.7234    0.5373 C.3       4 UNK         0.0329 
     23 CB         26.3221   25.7077   -0.5171 C.3       4 UNK        -0.2001 
     24 N          26.3487   26.3152    1.8576 N.am      4 UNK        -0.4303 
     25 C          25.7953   26.6663    3.0259 C.2       3 UNK         0.5044 
     26 O          24.8813   27.4853    3.1196 O.2       3 UNK        -0.5152 
     27 CA         26.2846   25.9847    4.3254 C.3       3 UNK         0.0319 
     28 CB         25.2258   24.9844    4.8321 C.3       3 UNK        -0.2001 
     29 N          27.6164   25.3521    4.3263 N.am      3 UNK        -0.4354 
     30 C          28.0456   24.2849    3.6407 C.2       2 UNK         0.4964 
     31 O          27.4155   23.7433    2.7307 O.2       2 UNK        -0.5047 
     32 CA         29.4094   23.7230    4.0670 C.3       2 UNK         0.0288 
     33 CB         29.3323   23.0656    5.4592 C.3       2 UNK        -0.2113 
     34 N          29.8711   22.7364    3.0944 N.am      2 UNK        -0.4145 
     35 C          31.1547   22.4537    2.8458 C.2       1 UNK         0.5006 
     36 O          32.0977   22.9953    3.4273 O.2       1 UNK        -0.5103 
     37 C          27.6514   30.9381   -0.6813 C.2       5 UNK         0.5055 
     38 O          27.4744   32.0039   -1.2734 O.2       5 UNK        -0.5220 
     39 N          28.0764   30.8532    0.5872 N.am      6 UNK        -0.4450 
     40 CA         28.5175   31.9638    1.4458 C.3       6 UNK         0.0367 
     41 CB         27.3713   32.9559    1.7349 C.3       6 UNK        -0.1929 
     42 C          29.8077   32.6405    0.9392 C.2       6 UNK         0.5070 
     43 O          29.9630   33.8566    1.0598 O.2       6 UNK        -0.5237 
     44 N          30.7149   31.8264    0.3844 N.am      7 UNK        -0.4739 
     45 CA         32.0086   32.2429   -0.1599 C.3       7 UNK         0.0276 
     46 CB         32.2961   31.4040   -1.4171 C.3       7 UNK        -0.1927 
     47 C          33.1656   32.1004    0.8473 C.2       7 UNK         0.5013 
     48 O          34.2460   32.6312    0.5850 O.2       7 UNK        -0.5193 
     49 N          32.9485   31.3830    1.9570 N.am      8 UNK        -0.4253 
     50 CA         33.9440   31.0895    2.9868 C.3       8 UNK         0.0242 
     51 CB         34.7630   29.8515    2.5741 C.3       8 UNK        -0.2000 
     52 C          33.2361   30.8550    4.3255 C.2       8 UNK         0.4948 
     53 O          32.0161   30.6805    4.3512 O.2       8 UNK        -0.5275 
     54 N          34.0133   30.8086    5.4161 N.am      9 UNK        -0.4246 
     55 CA         33.5369   30.6418    6.7978 C.3       9 UNK         0.0261 
     56 CB         34.7359   30.7265    7.7568 C.3       9 UNK        -0.1959 
     57 C          32.7248   29.3585    7.0687 C.2       9 UNK         0.5033 
     58 O          31.9306   29.3406    8.0097 O.2       9 UNK        -0.5390 
     59 N          32.9165   28.3221    6.2405 N.am      10 UNK        -0.4215 
     60 CA         32.1421   27.0779    6.2618 C.3       10 UNK         0.0240 
     61 CB         32.8864   26.0101    5.4428 C.3       10 UNK        -0.1982 
     62 C          30.6998   27.2334    5.7418 C.2       10 UNK         0.4970 
     63 O          29.8765   26.3555    6.0052 O.2       10 UNK        -0.4916 
     64 N          30.4133   28.3090    4.9999 N.am      11 UNK        -0.4279 
     65 CA         29.1095   28.5660    4.3766 C.3       11 UNK         0.1003 
     66 C          28.5357   29.9806    4.6524 C.2       11 UNK         0.5709 
     67 N          29.3343   30.9671    5.0365 N.am      11 UNK        -0.7358 
     68 O          27.3299   30.1804    4.5379 O.2       11 UNK        -0.4999 
     69 C69        29.0987   28.1769    2.8723 C.3       12 UNK        -0.0954 
     70 S70        30.4697   28.8942    1.9066 S.3       12 UNK        -0.2268 
     71 C71        31.4637   27.4286    1.4885 C.3       12 UNK         0.0203 
     72 H72        30.4011   19.0760    3.1543 H         1 UNK         0.0888 
     73 H73        31.3306   18.3707    4.4648 H         1 UNK         0.0888 
     74 H74        30.9238   20.0800    4.5209 H         1 UNK         0.0888 
     75 H75        33.4305   20.7243    1.7329 H         1 UNK         0.3017 
     76 H76        30.5573   20.7798    1.6322 H         1 UNK         0.0873 
     77 H77        32.0384   23.1419    0.4921 H         1 UNK         0.0745 
     78 H78        32.6275   21.6278   -0.0782 H         1 UNK         0.0745 
     79 H79        28.3571   23.1467   -0.9797 H         1 UNK         0.0705 
     80 H80        28.9233   23.1164    0.6554 H         1 UNK         0.0705 
     81 H81        30.4047   24.9123    1.4886 H         1 UNK         0.1334 
     82 H82        31.1894   28.2367   -1.0826 H         1 UNK         0.1417 
     83 H83        29.3305   24.7077   -2.6592 H         1 UNK         0.1562 
     84 H84        30.2183   26.4890   -4.1634 H         1 UNK         0.0748 
     85 H85        30.8420   27.9848   -3.5177 H         1 UNK         0.0748 
     86 H86        28.5708   30.3133   -3.1820 H         1 UNK         0.0940 
     87 H87        29.5379   29.4758   -2.0138 H         1 UNK         0.0940 
     88 H88        26.5007   29.7577   -2.0141 H         1 UNK         0.0703 
     89 H89        27.8366   27.6361   -0.8519 H         1 UNK         0.3081 
     90 H90        24.7639   26.6457    0.5666 H         1 UNK         0.0719 
     91 H91        27.4045   25.6525   -0.5582 H         1 UNK         0.0809 
     92 H92        25.9475   24.7077   -0.2967 H         1 UNK         0.0809 
     93 H93        25.9650   25.9736   -1.5133 H         1 UNK         0.0809 
     94 H94        27.0325   25.5683    1.8816 H         1 UNK         0.2990 
     95 H95        26.3451   26.7817    5.0678 H         1 UNK         0.0690 
     96 H96        25.5012   24.5724    5.8030 H         1 UNK         0.0788 
     97 H97        25.0902   24.1523    4.1403 H         1 UNK         0.0788 
     98 H98        24.2546   25.4669    4.9511 H         1 UNK         0.0788 
     99 H99        28.2584   25.7194    5.0247 H         1 UNK         0.2993 
    100 H100       30.1155   24.5555    4.0927 H         1 UNK         0.0949 
    101 H101       30.3104   22.7092    5.7829 H         1 UNK         0.0767 
    102 H102       28.9848   23.7699    6.2158 H         1 UNK         0.0767 
    103 H103       28.6477   22.2165    5.4646 H         1 UNK         0.0767 
    104 H104       29.1298   22.3026    2.5581 H         1 UNK         0.3013 
    105 H105       28.1870   29.9274    0.9756 H         1 UNK         0.3121 
    106 H106       28.7952   31.5152    2.3948 H         1 UNK         0.0774 
    107 H107       27.6680   33.6820    2.4926 H         1 UNK         0.0815 
    108 H108       27.0814   33.5169    0.8463 H         1 UNK         0.0815 
    109 H109       26.4886   32.4392    2.1118 H         1 UNK         0.0815 
    110 H110       30.5130   30.8367    0.3621 H         1 UNK         0.2987 
    111 H111       31.9612   33.2936   -0.4549 H         1 UNK         0.0949 
    112 H112       32.4022   30.3449   -1.1808 H         1 UNK         0.0806 
    113 H113       31.5008   31.5080   -2.1555 H         1 UNK         0.0806 
    114 H114       33.2231   31.7236   -1.8953 H         1 UNK         0.0806 
    115 H115       32.0217   31.0268    2.1553 H         1 UNK         0.3010 
    116 H116       34.6073   31.9493    3.1039 H         1 UNK         0.0829 
    117 H117       35.2530   30.0021    1.6120 H         1 UNK         0.0813 
    118 H118       35.5470   29.6322    3.2996 H         1 UNK         0.0813 
    119 H119       34.1352   28.9639    2.4922 H         1 UNK         0.0813 
    120 H120       35.0077   30.9463    5.3025 H         1 UNK         0.3038 
    121 H121       32.8731   31.4826    7.0098 H         1 UNK         0.0769 
    122 H122       35.4588   29.9312    7.5706 H         1 UNK         0.0811 
    123 H123       34.4135   30.6365    8.7953 H         1 UNK         0.0811 
    124 H124       35.2535   31.6815    7.6642 H         1 UNK         0.0811 
    125 H125       33.6007   28.4228    5.5055 H         1 UNK         0.3204 
    126 H126       32.0772   26.7324    7.2957 H         1 UNK         0.0748 
    127 H127       32.3515   25.0590    5.4601 H         1 UNK         0.0771 
    128 H128       32.9947   26.3017    4.3976 H         1 UNK         0.0771 
    129 H129       33.8825   25.8239    5.8448 H         1 UNK         0.0771 
    130 H130       31.1244   29.0113    4.8248 H         1 UNK         0.2980 
    131 H131       28.3757   27.9273    4.8644 H         1 UNK         0.0545 
    132 H132       30.3443   30.8590    4.9997 H         1 UNK         0.3459 
    133 H133       28.9355   31.8689    5.2389 H         1 UNK         0.3459 
    134 H134       28.1579   28.4698    2.4072 H         1 UNK         0.0616 
    135 H135       29.1453   27.0926    2.7788 H         1 UNK         0.0616 
    136 H136       31.5774   26.7986    2.3719 H         1 UNK         0.0634 
    137 H137       32.4664   27.7546    1.2105 H         1 UNK         0.0634 
@<TRIPOS>BOND
     1    1    2 1    
     2    1   72 1    
     3    1   73 1    
     4    1   74 1    
     5    2    3 2    
     6    2    4 am   BACKBONE|DICT|INTERRES
     7    4    5 1    
     8    4   75 1    
     9    5    6 1    
    10    5   35 1    
    11    5   76 1    
    12    6    7 1    
    13    6   77 1    
    14    6   78 1    
    15    7    8 1    
    16    8    9 1    
    17    8   79 1    
    18    8   80 1    
    19    9   10 ar   
    20    9   14 ar   
    21   10   11 ar   
    22   10   81 1    
    23   11   12 ar   
    24   11   71 1    
    25   12   13 ar   
    26   12   82 1    
    27   13   14 ar   
    28   13   15 1    
    29   14   83 1    
    30   15   16 1    
    31   15   84 1    
    32   15   85 1    
    33   16   17 1    
    34   17   18 1    
    35   17   86 1    
    36   17   87 1    
    37   18   19 1    
    38   18   37 1    
    39   18   88 1    
    40   19   20 am   BACKBONE|DICT|INTERRES
    41   19   89 1    
    42   20   21 2    
    43   20   22 1    
    44   22   23 1    
    45   22   24 1    
    46   22   90 1    
    47   23   91 1    
    48   23   92 1    
    49   23   93 1    
    50   24   25 am   BACKBONE|DICT|INTERRES
    51   24   94 1    
    52   25   26 2    
    53   25   27 1    
    54   27   28 1    
    55   27   29 1    
    56   27   95 1    
    57   28   96 1    
    58   28   97 1    
    59   28   98 1    
    60   29   30 am   BACKBONE|DICT|INTERRES
    61   29   99 1    
    62   30   31 2    
    63   30   32 1    
    64   32   33 1    
    65   32   34 1    
    66   32  100 1    
    67   33  101 1    
    68   33  102 1    
    69   33  103 1    
    70   34   35 am   BACKBONE|DICT|INTERRES
    71   34  104 1    
    72   35   36 2    
    73   37   38 2    
    74   37   39 am   BACKBONE|DICT|INTERRES
    75   39   40 1    
    76   39  105 1    
    77   40   41 1    
    78   40   42 1    
    79   40  106 1    
    80   41  107 1    
    81   41  108 1    
    82   41  109 1    
    83   42   43 2    
    84   42   44 am   BACKBONE|DICT|INTERRES
    85   44   45 1    
    86   44  110 1    
    87   45   46 1    
    88   45   47 1    
    89   45  111 1    
    90   46  112 1    
    91   46  113 1    
    92   46  114 1    
    93   47   48 2    
    94   47   49 am   BACKBONE|DICT|INTERRES
    95   49   50 1    
    96   49  115 1    
    97   50   51 1    
    98   50   52 1    
    99   50  116 1    
   100   51  117 1    
   101   51  118 1    
   102   51  119 1    
   103   52   53 2    
   104   52   54 am   BACKBONE|DICT|INTERRES
   105   54   55 1    
   106   54  120 1    
   107   55   56 1    
   108   55   57 1    
   109   55  121 1    
   110   56  122 1    
   111   56  123 1    
   112   56  124 1    
   113   57   58 2    
   114   57   59 am   BACKBONE|DICT|INTERRES
   115   59   60 1    
   116   59  125 1    
   117   60   61 1    
   118   60   62 1    
   119   60  126 1    
   120   61  127 1    
   121   61  128 1    
   122   61  129 1    
   123   62   63 2    
   124   62   64 am   BACKBONE|DICT|INTERRES
   125   64   65 1    
   126   64  130 1    
   127   65   66 1    
   128   65   69 1    
   129   65  131 1    
   130   66   67 am   BACKBONE|DICT|INTERRES
   131   66   68 2    
   132   67  132 1    
   133   67  133 1    
   134   69   70 1    
   135   69  134 1    
   136   69  135 1    
   137   70   71 1    
   138   71  136 1    
   139   71  137 1    
@<TRIPOS>SUBSTRUCTURE
     1 UNK         1 GROUP             0       ****    0 ROOT    
