@<TRIPOS>MOLECULE
3R136
137   139    1
SMALL
USER_CHARGES


@<TRIPOS>ATOM
      1 CA         25.8668   26.1579    3.8438 C.3       0 UNK        -0.1979 
      2 C          26.6758   25.3506    2.8403 C.2       0 UNK         0.4864 
      3 O          27.2683   25.9318    1.9312 O.2       0 UNK        -0.5359 
      4 N          26.7157   24.0202    3.0009 N.am      1 UNK        -0.4318 
      5 CA         27.3882   23.0705    2.1015 C.3       1 UNK         0.0824 
      6 C6         28.9182   23.3274    1.9913 C.3       12 UNK        -0.0944 
      7 S7         29.8701   21.8269    1.5769 S.3       12 UNK        -0.2672 
      8 C8         31.3928   22.0695    2.5557 C.3       12 UNK         0.0333 
      9 C9         32.1309   23.3749    2.2585 C.ar      12 UNK        -0.0807 
     10 C10        32.7369   24.0730    3.3077 C.ar      12 UNK        -0.0894 
     11 C11        33.4210   25.2685    3.0694 C.ar      12 UNK        -0.0804 
     12 C12        33.4956   25.7698    1.7658 C.ar      12 UNK        -0.0824 
     13 C13        32.9179   25.0712    0.7015 C.ar      12 UNK        -0.0762 
     14 C14        32.2411   23.8739    0.9545 C.ar      12 UNK        -0.0782 
     15 C15        33.0600   25.5826   -0.7276 C.3       12 UNK         0.0230 
     16 S16        32.2693   27.2022   -0.9950 S.3       12 UNK        -0.2608 
     17 C17        30.5077   26.8168   -0.7165 C.3       12 UNK        -0.0989 
     18 CA         29.7275   28.0050   -0.1020 C.3       5 UNK         0.0716 
     19 N          28.2852   27.7795   -0.1703 N.am      5 UNK        -0.4135 
     20 C          27.3327   28.6781    0.1126 C.2       4 UNK         0.5031 
     21 O          27.5730   29.8307    0.4717 O.2       4 UNK        -0.5229 
     22 CA         25.8710   28.1928    0.0258 C.3       4 UNK         0.0329 
     23 CB         24.8901   29.3161   -0.3742 C.3       4 UNK        -0.2001 
     24 N          25.7084   26.9987   -0.8175 N.am      4 UNK        -0.4303 
     25 C          25.8692   26.9077   -2.1479 C.2       3 UNK         0.5044 
     26 O          26.1062   27.8714   -2.8766 O.2       3 UNK        -0.5152 
     27 CA         25.8045   25.5025   -2.7789 C.3       3 UNK         0.0319 
     28 CB         27.1128   25.1827   -3.5239 C.3       3 UNK        -0.2001 
     29 N          25.5564   24.4309   -1.8115 N.am      3 UNK        -0.4354 
     30 C          24.3651   24.0660   -1.3274 C.2       2 UNK         0.4964 
     31 O          23.3081   24.6183   -1.6315 O.2       2 UNK        -0.5047 
     32 CA         24.3460   22.8966   -0.3248 C.3       2 UNK         0.0288 
     33 CB         24.4624   21.5434   -1.0542 C.3       2 UNK        -0.2113 
     34 N          25.3204   22.9983    0.7759 N.am      2 UNK        -0.4145 
     35 C          26.6643   22.9732    0.7350 C.2       1 UNK         0.5006 
     36 O          27.3113   22.9004   -0.3121 O.2       1 UNK        -0.5103 
     37 C          30.1786   28.3291    1.3356 C.2       5 UNK         0.5055 
     38 O          30.8294   29.3528    1.5471 O.2       5 UNK        -0.5220 
     39 N          29.7675   27.4957    2.3035 N.am      6 UNK        -0.4450 
     40 CA         30.0996   27.6837    3.7189 C.3       6 UNK         0.0367 
     41 CB         29.9135   26.3651    4.4839 C.3       6 UNK        -0.1929 
     42 C          29.2971   28.8198    4.3756 C.2       6 UNK         0.5070 
     43 O          29.7096   29.3162    5.4216 O.2       6 UNK        -0.5237 
     44 N          28.1764   29.2232    3.7605 N.am      7 UNK        -0.4739 
     45 CA         27.4194   30.4117    4.1554 C.3       7 UNK         0.0276 
     46 CB         25.9822   30.3211    3.6182 C.3       7 UNK        -0.1927 
     47 C          28.1151   31.6990    3.6798 C.2       7 UNK         0.5013 
     48 O          28.1737   32.6671    4.4384 O.2       7 UNK        -0.5193 
     49 N          28.6371   31.6825    2.4441 N.am      8 UNK        -0.4253 
     50 CA         29.3889   32.7820    1.8388 C.3       8 UNK         0.0242 
     51 CB         29.5182   32.5478    0.3246 C.3       8 UNK        -0.2000 
     52 C          30.7716   32.9880    2.4790 C.2       8 UNK         0.4948 
     53 O          31.1280   34.1297    2.7751 O.2       8 UNK        -0.5275 
     54 N          31.5233   31.8982    2.6804 N.am      9 UNK        -0.4246 
     55 CA         32.8605   31.9117    3.2666 C.3       9 UNK         0.0261 
     56 CB         33.9146   32.0787    2.1558 C.3       9 UNK        -0.1959 
     57 C          33.0598   30.6157    4.0561 C.2       9 UNK         0.5033 
     58 O          33.3709   29.5824    3.4642 O.2       9 UNK        -0.5390 
     59 N          32.8909   30.6865    5.3820 N.am      10 UNK        -0.4215 
     60 CA         32.9258   29.5595    6.3252 C.3       10 UNK         0.0240 
     61 CB         32.2435   29.9993    7.6356 C.3       10 UNK        -0.1982 
     62 C          34.3218   28.9439    6.5773 C.2       10 UNK         0.4970 
     63 O          34.5841   28.4871    7.6912 O.2       10 UNK        -0.4916 
     64 N          35.1855   28.9246    5.5532 N.am      11 UNK        -0.4279 
     65 CA         36.5284   28.3165    5.5476 C.3       11 UNK         0.1003 
     66 C          37.5381   28.9375    6.5649 C.2       11 UNK         0.5709 
     67 N          37.3228   30.1573    7.0439 N.am      11 UNK        -0.7358 
     68 O          38.5532   28.3297    6.8979 O.2       11 UNK        -0.4999 
     69 C69        36.4576   26.7603    5.6047 C.3       12 UNK        -0.0954 
     70 S70        35.8946   26.0294    4.0310 S.3       12 UNK        -0.2268 
     71 C71        34.0835   26.0161    4.2173 C.3       12 UNK         0.0203 
     72 H72        25.4126   25.5242    4.6052 H         1 UNK         0.0888 
     73 H73        26.5037   26.8851    4.3455 H         1 UNK         0.0888 
     74 H74        25.0705   26.6983    3.3333 H         1 UNK         0.0888 
     75 H75        26.2311   23.6047    3.7851 H         1 UNK         0.3017 
     76 H76        27.2526   22.0950    2.5716 H         1 UNK         0.0873 
     77 H77        29.2899   23.6983    2.9471 H         1 UNK         0.0745 
     78 H78        29.1435   24.1085    1.2631 H         1 UNK         0.0745 
     79 H79        31.1293   22.0137    3.6132 H         1 UNK         0.0705 
     80 H80        32.0688   21.2360    2.3617 H         1 UNK         0.0705 
     81 H81        32.6757   23.6848    4.3154 H         1 UNK         0.1334 
     82 H82        34.0215   26.6966    1.5782 H         1 UNK         0.1417 
     83 H83        31.7991   23.3264    0.1334 H         1 UNK         0.1562 
     84 H84        32.6474   24.8681   -1.4417 H         1 UNK         0.0748 
     85 H85        34.1213   25.6699   -0.9644 H         1 UNK         0.0748 
     86 H86        30.4068   25.9268   -0.0934 H         1 UNK         0.0940 
     87 H87        30.0810   26.5530   -1.6856 H         1 UNK         0.0940 
     88 H88        29.9298   28.8895   -0.7104 H         1 UNK         0.0703 
     89 H89        27.9836   26.8372   -0.3675 H         1 UNK         0.3081 
     90 H90        25.6039   27.8820    1.0362 H         1 UNK         0.0719 
     91 H91        23.8670   28.9459   -0.4377 H         1 UNK         0.0809 
     92 H92        24.8961   30.1224    0.3594 H         1 UNK         0.0809 
     93 H93        25.1483   29.7598   -1.3359 H         1 UNK         0.0809 
     94 H94        25.5324   26.1386   -0.3175 H         1 UNK         0.2990 
     95 H95        24.9906   25.5139   -3.5068 H         1 UNK         0.0690 
     96 H96        27.9679   25.1628   -2.8469 H         1 UNK         0.0788 
     97 H97        27.3220   25.9268   -4.2937 H         1 UNK         0.0788 
     98 H98        27.0579   24.2143   -4.0215 H         1 UNK         0.0788 
     99 H99        26.3662   23.9128   -1.4727 H         1 UNK         0.2993 
    100 H100       23.3644   22.9210    0.1520 H         1 UNK         0.0949 
    101 H101       25.4206   21.4322   -1.5629 H         1 UNK         0.0767 
    102 H102       24.3535   20.7096   -0.3606 H         1 UNK         0.0767 
    103 H103       23.6819   21.4400   -1.8093 H         1 UNK         0.0767 
    104 H104       24.9032   23.1031    1.6903 H         1 UNK         0.3013 
    105 H105       29.1339   26.7371    2.0702 H         1 UNK         0.3121 
    106 H106       31.1560   27.9543    3.7807 H         1 UNK         0.0774 
    107 H107       28.8683   26.0678    4.5410 H         1 UNK         0.0815 
    108 H108       30.2783   26.4593    5.5075 H         1 UNK         0.0815 
    109 H109       30.4701   25.5547    4.0166 H         1 UNK         0.0815 
    110 H110       27.9144   28.7709    2.8971 H         1 UNK         0.2987 
    111 H111       27.3666   30.4460    5.2463 H         1 UNK         0.0949 
    112 H112       25.9534   30.3105    2.5297 H         1 UNK         0.0806 
    113 H113       25.4788   29.4237    3.9775 H         1 UNK         0.0806 
    114 H114       25.3921   31.1770    3.9482 H         1 UNK         0.0806 
    115 H115       28.4791   30.8684    1.8570 H         1 UNK         0.3010 
    116 H116       28.8157   33.6995    1.9884 H         1 UNK         0.0829 
    117 H117       28.5390   32.4919   -0.1516 H         1 UNK         0.0813 
    118 H118       30.0658   33.3618   -0.1522 H         1 UNK         0.0813 
    119 H119       30.0487   31.6212    0.1021 H         1 UNK         0.0813 
    120 H120       31.1818   30.9840    2.3808 H         1 UNK         0.3038 
    121 H121       32.9562   32.7512    3.9588 H         1 UNK         0.0769 
    122 H122       33.8359   31.2909    1.4050 H         1 UNK         0.0811 
    123 H123       34.9244   32.0411    2.5661 H         1 UNK         0.0811 
    124 H124       33.8054   33.0364    1.6468 H         1 UNK         0.0811 
    125 H125       32.6562   31.5835    5.7824 H         1 UNK         0.3204 
    126 H126       32.3228   28.7572    5.8964 H         1 UNK         0.0748 
    127 H127       32.8165   30.7729    8.1483 H         1 UNK         0.0771 
    128 H128       31.2418   30.3884    7.4515 H         1 UNK         0.0771 
    129 H129       32.1335   29.1610    8.3249 H         1 UNK         0.0771 
    130 H130       34.8457   29.2640    4.6585 H         1 UNK         0.2980 
    131 H131       36.9565   28.5835    4.5809 H         1 UNK         0.0545 
    132 H132       37.9844   30.5579    7.6898 H         1 UNK         0.3459 
    133 H133       36.5013   30.6735    6.7745 H         1 UNK         0.3459 
    134 H134       37.4428   26.3301    5.7897 H         1 UNK         0.0616 
    135 H135       35.8271   26.4156    6.4253 H         1 UNK         0.0616 
    136 H136       33.8216   25.5683    5.1770 H         1 UNK         0.0634 
    137 H137       33.7050   27.0371    4.2334 H         1 UNK         0.0634 
@<TRIPOS>BOND
     1    1    2 1    
     2    1   72 1    
     3    1   73 1    
     4    1   74 1    
     5    2    3 2    
     6    2    4 am   BACKBONE|DICT|INTERRES
     7    4    5 1    
     8    4   75 1    
     9    5    6 1    
    10    5   35 1    
    11    5   76 1    
    12    6    7 1    
    13    6   77 1    
    14    6   78 1    
    15    7    8 1    
    16    8    9 1    
    17    8   79 1    
    18    8   80 1    
    19    9   10 ar   
    20    9   14 ar   
    21   10   11 ar   
    22   10   81 1    
    23   11   12 ar   
    24   11   71 1    
    25   12   13 ar   
    26   12   82 1    
    27   13   14 ar   
    28   13   15 1    
    29   14   83 1    
    30   15   16 1    
    31   15   84 1    
    32   15   85 1    
    33   16   17 1    
    34   17   18 1    
    35   17   86 1    
    36   17   87 1    
    37   18   19 1    
    38   18   37 1    
    39   18   88 1    
    40   19   20 am   BACKBONE|DICT|INTERRES
    41   19   89 1    
    42   20   21 2    
    43   20   22 1    
    44   22   23 1    
    45   22   24 1    
    46   22   90 1    
    47   23   91 1    
    48   23   92 1    
    49   23   93 1    
    50   24   25 am   BACKBONE|DICT|INTERRES
    51   24   94 1    
    52   25   26 2    
    53   25   27 1    
    54   27   28 1    
    55   27   29 1    
    56   27   95 1    
    57   28   96 1    
    58   28   97 1    
    59   28   98 1    
    60   29   30 am   BACKBONE|DICT|INTERRES
    61   29   99 1    
    62   30   31 2    
    63   30   32 1    
    64   32   33 1    
    65   32   34 1    
    66   32  100 1    
    67   33  101 1    
    68   33  102 1    
    69   33  103 1    
    70   34   35 am   BACKBONE|DICT|INTERRES
    71   34  104 1    
    72   35   36 2    
    73   37   38 2    
    74   37   39 am   BACKBONE|DICT|INTERRES
    75   39   40 1    
    76   39  105 1    
    77   40   41 1    
    78   40   42 1    
    79   40  106 1    
    80   41  107 1    
    81   41  108 1    
    82   41  109 1    
    83   42   43 2    
    84   42   44 am   BACKBONE|DICT|INTERRES
    85   44   45 1    
    86   44  110 1    
    87   45   46 1    
    88   45   47 1    
    89   45  111 1    
    90   46  112 1    
    91   46  113 1    
    92   46  114 1    
    93   47   48 2    
    94   47   49 am   BACKBONE|DICT|INTERRES
    95   49   50 1    
    96   49  115 1    
    97   50   51 1    
    98   50   52 1    
    99   50  116 1    
   100   51  117 1    
   101   51  118 1    
   102   51  119 1    
   103   52   53 2    
   104   52   54 am   BACKBONE|DICT|INTERRES
   105   54   55 1    
   106   54  120 1    
   107   55   56 1    
   108   55   57 1    
   109   55  121 1    
   110   56  122 1    
   111   56  123 1    
   112   56  124 1    
   113   57   58 2    
   114   57   59 am   BACKBONE|DICT|INTERRES
   115   59   60 1    
   116   59  125 1    
   117   60   61 1    
   118   60   62 1    
   119   60  126 1    
   120   61  127 1    
   121   61  128 1    
   122   61  129 1    
   123   62   63 2    
   124   62   64 am   BACKBONE|DICT|INTERRES
   125   64   65 1    
   126   64  130 1    
   127   65   66 1    
   128   65   69 1    
   129   65  131 1    
   130   66   67 am   BACKBONE|DICT|INTERRES
   131   66   68 2    
   132   67  132 1    
   133   67  133 1    
   134   69   70 1    
   135   69  134 1    
   136   69  135 1    
   137   70   71 1    
   138   71  136 1    
   139   71  137 1    
@<TRIPOS>SUBSTRUCTURE
     1 UNK         1 GROUP             0       ****    0 ROOT    
