@<TRIPOS>MOLECULE
3R136
137   139    1
SMALL
USER_CHARGES


@<TRIPOS>ATOM
      1 CA         27.5774   18.5146   -2.5929 C.3       0 UNK        -0.1979 
      2 C          28.5134   19.6485   -2.2006 C.2       0 UNK         0.4864 
      3 O          29.5658   19.8150   -2.8198 O.2       0 UNK        -0.5359 
      4 N          28.1435   20.4217   -1.1719 N.am      1 UNK        -0.4318 
      5 CA         28.8938   21.5835   -0.6839 C.3       1 UNK         0.0824 
      6 C6         28.4071   22.0420    0.7138 C.3       12 UNK        -0.0944 
      7 S7         28.4703   20.7300    1.9804 S.3       12 UNK        -0.2672 
      8 C8         30.2336   20.7163    2.4382 C.3       12 UNK         0.0333 
      9 C9         30.6830   22.0185    3.0862 C.ar      12 UNK        -0.0807 
     10 C10        31.4468   22.9384    2.3622 C.ar      12 UNK        -0.0894 
     11 C11        31.8879   24.1225    2.9591 C.ar      12 UNK        -0.0804 
     12 C12        31.5639   24.3821    4.2952 C.ar      12 UNK        -0.0824 
     13 C13        30.7911   23.4756    5.0266 C.ar      12 UNK        -0.0762 
     14 C14        30.3573   22.2935    4.4173 C.ar      12 UNK        -0.0782 
     15 C15        30.4399   23.7520    6.4813 C.3       12 UNK         0.0230 
     16 S16        28.6822   24.1857    6.6657 S.3       12 UNK        -0.2608 
     17 C17        28.7188   26.0076    6.8088 C.3       12 UNK        -0.0989 
     18 CA         28.8053   26.7801    5.4598 C.3       5 UNK         0.0716 
     19 N          27.8964   26.2644    4.4256 N.am      5 UNK        -0.4135 
     20 C          26.5567   26.3086    4.4231 C.2       4 UNK         0.5031 
     21 O          25.8832   26.8069    5.3273 O.2       4 UNK        -0.5229 
     22 CA         25.8565   25.7148    3.1816 C.3       4 UNK         0.0329 
     23 CB         24.3216   25.8246    3.2579 C.3       4 UNK        -0.2001 
     24 N          26.3104   26.3220    1.9236 N.am      4 UNK        -0.4303 
     25 C          27.4769   26.0598    1.3234 C.2       3 UNK         0.5044 
     26 O          28.3317   25.3100    1.8020 O.2       3 UNK        -0.5152 
     27 CA         27.7474   26.7543   -0.0151 C.3       3 UNK         0.0319 
     28 CB         28.2717   28.1858    0.1881 C.3       3 UNK        -0.2001 
     29 N          28.7376   25.9497   -0.7171 N.am      3 UNK        -0.4354 
     30 C          28.9366   25.8946   -2.0372 C.2       2 UNK         0.4964 
     31 O          28.3698   26.6234   -2.8522 O.2       2 UNK        -0.5047 
     32 CA         29.9136   24.8124   -2.5345 C.3       2 UNK         0.0288 
     33 CB         31.3539   25.3499   -2.5578 C.3       2 UNK        -0.2113 
     34 N          29.8628   23.5836   -1.7317 N.am      2 UNK        -0.4145 
     35 C          28.8058   22.7584   -1.6801 C.2       1 UNK         0.5006 
     36 O          27.7783   22.9207   -2.3450 O.2       1 UNK        -0.5103 
     37 C          28.6410   28.3090    5.6577 C.2       5 UNK         0.5055 
     38 O          28.7182   28.7994    6.7864 O.2       5 UNK        -0.5220 
     39 N          28.3636   29.0303    4.5649 N.am      6 UNK        -0.4450 
     40 CA         27.9437   30.4284    4.5468 C.3       6 UNK         0.0367 
     41 CB         26.4182   30.4972    4.7650 C.3       6 UNK        -0.1929 
     42 C          28.3642   31.0654    3.2149 C.2       6 UNK         0.5070 
     43 O          29.0449   30.4178    2.4187 O.2       6 UNK        -0.5237 
     44 N          27.9528   32.3213    2.9995 N.am      7 UNK        -0.4739 
     45 CA         28.2688   33.1615    1.8382 C.3       7 UNK         0.0276 
     46 CB         27.7419   32.5365    0.5234 C.3       7 UNK        -0.1927 
     47 C          29.7589   33.5557    1.8163 C.2       7 UNK         0.5013 
     48 O          30.2900   33.9136    2.8713 O.2       7 UNK        -0.5193 
     49 N          30.3881   33.5264    0.6314 N.am      8 UNK        -0.4253 
     50 CA         31.7592   33.9658    0.3456 C.3       8 UNK         0.0242 
     51 CB         32.1021   33.6234   -1.1143 C.3       8 UNK        -0.2000 
     52 C          32.8000   33.3676    1.3068 C.2       8 UNK         0.4948 
     53 O          33.0801   32.1694    1.2300 O.2       8 UNK        -0.5275 
     54 N          33.3038   34.2106    2.2210 N.am      9 UNK        -0.4246 
     55 CA         34.2454   33.8959    3.3050 C.3       9 UNK         0.0261 
     56 CB         35.6418   33.5791    2.7276 C.3       9 UNK        -0.1959 
     57 C          33.7442   32.8055    4.2782 C.2       9 UNK         0.5033 
     58 O          34.5657   32.1095    4.8774 O.2       9 UNK        -0.5390 
     59 N          32.4132   32.6719    4.4108 N.am      10 UNK        -0.4215 
     60 CA         31.6986   31.6095    5.1294 C.3       10 UNK         0.0240 
     61 CB         31.9130   31.7187    6.6539 C.3       10 UNK        -0.1982 
     62 C          32.0215   30.2117    4.5624 C.2       10 UNK         0.4970 
     63 O          32.3060   29.2865    5.3247 O.2       10 UNK        -0.4916 
     64 N          31.9849   30.1068    3.2274 N.am      11 UNK        -0.4279 
     65 CA         32.4287   28.9621    2.4254 C.3       11 UNK         0.1003 
     66 C          33.9803   28.8609    2.4259 C.2       11 UNK         0.5709 
     67 N          34.6600   29.8851    1.9273 N.am      11 UNK        -0.7358 
     68 O          34.5748   27.8875    2.8816 O.2       11 UNK        -0.4999 
     69 C69        31.6696   27.6468    2.7621 C.3       12 UNK        -0.0954 
     70 S70        31.7376   26.4220    1.4118 S.3       12 UNK        -0.2268 
     71 C71        32.7391   25.0991    2.1614 C.3       12 UNK         0.0203 
     72 H72        27.2442   18.6428   -3.6223 H         1 UNK         0.0888 
     73 H73        28.0942   17.5582   -2.5177 H         1 UNK         0.0888 
     74 H74        26.6956   18.4743   -1.9535 H         1 UNK         0.0888 
     75 H75        27.2663   20.2448   -0.7043 H         1 UNK         0.3017 
     76 H76        29.9423   21.2888   -0.6048 H         1 UNK         0.0873 
     77 H77        27.3753   22.3957    0.6602 H         1 UNK         0.0745 
     78 H78        28.9892   22.8938    1.0649 H         1 UNK         0.0745 
     79 H79        30.8349   20.4950    1.5553 H         1 UNK         0.0705 
     80 H80        30.4065   19.8924    3.1322 H         1 UNK         0.0705 
     81 H81        31.7054   22.7295    1.3336 H         1 UNK         0.1334 
     82 H82        31.9188   25.2845    4.7708 H         1 UNK         0.1417 
     83 H83        29.7627   21.5866    4.9804 H         1 UNK         0.1562 
     84 H84        31.0724   24.5375    6.8974 H         1 UNK         0.0748 
     85 H85        30.6421   22.8573    7.0719 H         1 UNK         0.0748 
     86 H86        29.5424   26.2952    7.4648 H         1 UNK         0.0940 
     87 H87        27.8084   26.2936    7.3396 H         1 UNK         0.0940 
     88 H88        29.8117   26.6384    5.0660 H         1 UNK         0.0703 
     89 H89        28.3378   25.8274    3.6191 H         1 UNK         0.3081 
     90 H90        26.1073   24.6516    3.1602 H         1 UNK         0.0719 
     91 H91        23.9917   26.8640    3.2835 H         1 UNK         0.0809 
     92 H92        23.8454   25.3408    2.4050 H         1 UNK         0.0809 
     93 H93        23.9389   25.3387    4.1566 H         1 UNK         0.0809 
     94 H94        25.6756   26.9754    1.4873 H         1 UNK         0.2990 
     95 H95        26.8219   26.7740   -0.5944 H         1 UNK         0.0690 
     96 H96        28.4694   28.6772   -0.7644 H         1 UNK         0.0788 
     97 H97        29.1973   28.1970    0.7649 H         1 UNK         0.0788 
     98 H98        27.5458   28.7998    0.7222 H         1 UNK         0.0788 
     99 H99        29.2361   25.3124   -0.1072 H         1 UNK         0.2993 
    100 H100       29.6264   24.5582   -3.5574 H         1 UNK         0.0949 
    101 H101       32.0423   24.6227   -2.9890 H         1 UNK         0.0767 
    102 H102       31.4216   26.2558   -3.1619 H         1 UNK         0.0767 
    103 H103       31.7102   25.5988   -1.5577 H         1 UNK         0.0767 
    104 H104       30.6733   23.3827   -1.1645 H         1 UNK         0.3013 
    105 H105       28.4131   28.5986    3.6517 H         1 UNK         0.3121 
    106 H106       28.4476   30.9705    5.3490 H         1 UNK         0.0774 
    107 H107       26.0666   31.5264    4.8395 H         1 UNK         0.0815 
    108 H108       25.8749   30.0211    3.9476 H         1 UNK         0.0815 
    109 H109       26.1271   29.9965    5.6888 H         1 UNK         0.0815 
    110 H110       27.4285   32.7817    3.7304 H         1 UNK         0.2987 
    111 H111       27.7246   34.0951    1.9896 H         1 UNK         0.0949 
    112 H112       28.2968   31.6427    0.2354 H         1 UNK         0.0806 
    113 H113       26.6936   32.2532    0.6192 H         1 UNK         0.0806 
    114 H114       27.8007   33.2448   -0.3039 H         1 UNK         0.0806 
    115 H115       29.8629   33.1872   -0.1608 H         1 UNK         0.3010 
    116 H116       31.7770   35.0529    0.4457 H         1 UNK         0.0829 
    117 H117       31.4312   34.1267   -1.8108 H         1 UNK         0.0813 
    118 H118       33.1174   33.9375   -1.3608 H         1 UNK         0.0813 
    119 H119       32.0396   32.5506   -1.3025 H         1 UNK         0.0813 
    120 H120       32.9652   35.1634    2.2142 H         1 UNK         0.3038 
    121 H121       34.3357   34.8048    3.9017 H         1 UNK         0.0769 
    122 H122       36.3820   33.4739    3.5217 H         1 UNK         0.0811 
    123 H123       35.9888   34.3752    2.0691 H         1 UNK         0.0811 
    124 H124       35.6422   32.6496    2.1582 H         1 UNK         0.0811 
    125 H125       31.8167   33.2902    3.8636 H         1 UNK         0.3204 
    126 H126       30.6408   31.7830    4.9386 H         1 UNK         0.0748 
    127 H127       31.2834   31.0037    7.1855 H         1 UNK         0.0771 
    128 H128       32.9462   31.5133    6.9356 H         1 UNK         0.0771 
    129 H129       31.6558   32.7123    7.0204 H         1 UNK         0.0771 
    130 H130       31.7795   30.9360    2.6867 H         1 UNK         0.2980 
    131 H131       32.1531   29.2263    1.4034 H         1 UNK         0.0545 
    132 H132       34.1648   30.7093    1.5930 H         1 UNK         0.3459 
    133 H133       35.6663   29.8576    1.9213 H         1 UNK         0.3459 
    134 H134       32.0395   27.2177    3.6916 H         1 UNK         0.0616 
    135 H135       30.6146   27.8651    2.9296 H         1 UNK         0.0616 
    136 H136       33.5176   25.5209    2.7967 H         1 UNK         0.0634 
    137 H137       33.2610   24.5707    1.3623 H         1 UNK         0.0634 
@<TRIPOS>BOND
     1    1    2 1    
     2    1   72 1    
     3    1   73 1    
     4    1   74 1    
     5    2    3 2    
     6    2    4 am   BACKBONE|DICT|INTERRES
     7    4    5 1    
     8    4   75 1    
     9    5    6 1    
    10    5   35 1    
    11    5   76 1    
    12    6    7 1    
    13    6   77 1    
    14    6   78 1    
    15    7    8 1    
    16    8    9 1    
    17    8   79 1    
    18    8   80 1    
    19    9   10 ar   
    20    9   14 ar   
    21   10   11 ar   
    22   10   81 1    
    23   11   12 ar   
    24   11   71 1    
    25   12   13 ar   
    26   12   82 1    
    27   13   14 ar   
    28   13   15 1    
    29   14   83 1    
    30   15   16 1    
    31   15   84 1    
    32   15   85 1    
    33   16   17 1    
    34   17   18 1    
    35   17   86 1    
    36   17   87 1    
    37   18   19 1    
    38   18   37 1    
    39   18   88 1    
    40   19   20 am   BACKBONE|DICT|INTERRES
    41   19   89 1    
    42   20   21 2    
    43   20   22 1    
    44   22   23 1    
    45   22   24 1    
    46   22   90 1    
    47   23   91 1    
    48   23   92 1    
    49   23   93 1    
    50   24   25 am   BACKBONE|DICT|INTERRES
    51   24   94 1    
    52   25   26 2    
    53   25   27 1    
    54   27   28 1    
    55   27   29 1    
    56   27   95 1    
    57   28   96 1    
    58   28   97 1    
    59   28   98 1    
    60   29   30 am   BACKBONE|DICT|INTERRES
    61   29   99 1    
    62   30   31 2    
    63   30   32 1    
    64   32   33 1    
    65   32   34 1    
    66   32  100 1    
    67   33  101 1    
    68   33  102 1    
    69   33  103 1    
    70   34   35 am   BACKBONE|DICT|INTERRES
    71   34  104 1    
    72   35   36 2    
    73   37   38 2    
    74   37   39 am   BACKBONE|DICT|INTERRES
    75   39   40 1    
    76   39  105 1    
    77   40   41 1    
    78   40   42 1    
    79   40  106 1    
    80   41  107 1    
    81   41  108 1    
    82   41  109 1    
    83   42   43 2    
    84   42   44 am   BACKBONE|DICT|INTERRES
    85   44   45 1    
    86   44  110 1    
    87   45   46 1    
    88   45   47 1    
    89   45  111 1    
    90   46  112 1    
    91   46  113 1    
    92   46  114 1    
    93   47   48 2    
    94   47   49 am   BACKBONE|DICT|INTERRES
    95   49   50 1    
    96   49  115 1    
    97   50   51 1    
    98   50   52 1    
    99   50  116 1    
   100   51  117 1    
   101   51  118 1    
   102   51  119 1    
   103   52   53 2    
   104   52   54 am   BACKBONE|DICT|INTERRES
   105   54   55 1    
   106   54  120 1    
   107   55   56 1    
   108   55   57 1    
   109   55  121 1    
   110   56  122 1    
   111   56  123 1    
   112   56  124 1    
   113   57   58 2    
   114   57   59 am   BACKBONE|DICT|INTERRES
   115   59   60 1    
   116   59  125 1    
   117   60   61 1    
   118   60   62 1    
   119   60  126 1    
   120   61  127 1    
   121   61  128 1    
   122   61  129 1    
   123   62   63 2    
   124   62   64 am   BACKBONE|DICT|INTERRES
   125   64   65 1    
   126   64  130 1    
   127   65   66 1    
   128   65   69 1    
   129   65  131 1    
   130   66   67 am   BACKBONE|DICT|INTERRES
   131   66   68 2    
   132   67  132 1    
   133   67  133 1    
   134   69   70 1    
   135   69  134 1    
   136   69  135 1    
   137   70   71 1    
   138   71  136 1    
   139   71  137 1    
@<TRIPOS>SUBSTRUCTURE
     1 UNK         1 GROUP             0       ****    0 ROOT    
