@<TRIPOS>MOLECULE
3R136
137   139    1
SMALL
USER_CHARGES


@<TRIPOS>ATOM
      1 CA         28.8617   19.5781   -1.5504 C.3       0 UNK        -0.1979 
      2 C          28.6587   20.8348   -0.7187 C.2       0 UNK         0.4864 
      3 O          28.7037   21.9419   -1.2572 O.2       0 UNK        -0.5359 
      4 N          28.4231   20.6807    0.5908 N.am      1 UNK        -0.4318 
      5 CA         28.2448   21.7689    1.5618 C.3       1 UNK         0.0824 
      6 C6         28.6219   21.3350    3.0027 C.3       12 UNK        -0.0944 
      7 S7         30.3191   20.6739    3.1382 S.3       12 UNK        -0.2672 
      8 C8         31.2462   22.0910    3.8325 C.3       12 UNK         0.0333 
      9 C9         31.7995   23.1072    2.8272 C.ar      12 UNK        -0.0807 
     10 C10        32.5212   24.1964    3.3278 C.ar      12 UNK        -0.0894 
     11 C11        33.0949   25.1365    2.4674 C.ar      12 UNK        -0.0804 
     12 C12        32.9252   24.9961    1.0869 C.ar      12 UNK        -0.0824 
     13 C13        32.2042   23.9177    0.5626 C.ar      12 UNK        -0.0762 
     14 C14        31.6572   22.9743    1.4382 C.ar      12 UNK        -0.0782 
     15 C15        32.0790   23.7046   -0.9450 C.3       12 UNK         0.0230 
     16 S16        31.7074   25.2163   -1.8971 S.3       12 UNK        -0.2608 
     17 C17        29.9472   25.5010   -1.5135 C.3       12 UNK        -0.0989 
     18 CA         29.6874   26.9579   -1.0488 C.3       5 UNK         0.0716 
     19 N          28.2982   27.3609   -1.2693 N.am      5 UNK        -0.4135 
     20 C          27.9046   28.5628   -1.7130 C.2       4 UNK         0.5031 
     21 O          28.6785   29.4538   -2.0651 O.2       4 UNK        -0.5229 
     22 CA         26.3871   28.8245   -1.7876 C.3       4 UNK         0.0329 
     23 CB         25.8549   28.4953   -3.1918 C.3       4 UNK        -0.2001 
     24 N          25.6180   28.0727   -0.7932 N.am      4 UNK        -0.4303 
     25 C          25.6539   28.2993    0.5276 C.2       3 UNK         0.5044 
     26 O          26.2605   29.2381    1.0419 O.2       3 UNK        -0.5152 
     27 CA         24.9087   27.3006    1.4360 C.3       3 UNK         0.0319 
     28 CB         23.5415   27.8708    1.8464 C.3       3 UNK        -0.2001 
     29 N          24.7203   25.9508    0.8803 N.am      3 UNK        -0.4354 
     30 C          25.7026   25.1422    0.4611 C.2       2 UNK         0.4964 
     31 O          26.8818   25.4905    0.3663 O.2       2 UNK        -0.5047 
     32 CA         25.3127   23.7198    0.0356 C.3       2 UNK         0.0288 
     33 CB         24.9542   23.6869   -1.4585 C.3       2 UNK        -0.2113 
     34 N          26.4413   22.8211    0.2738 N.am      2 UNK        -0.4145 
     35 C          26.8379   22.4031    1.4821 C.2       1 UNK         0.5006 
     36 O          26.1513   22.5266    2.4989 O.2       1 UNK        -0.5103 
     37 C          30.0422   27.1615    0.4326 C.2       5 UNK         0.5055 
     38 O          30.9953   27.8775    0.7425 O.2       5 UNK        -0.5220 
     39 N          29.2320   26.5708    1.3220 N.am      6 UNK        -0.4450 
     40 CA         29.3760   26.5878    2.7770 C.3       6 UNK         0.0367 
     41 CB         28.6444   25.3674    3.3626 C.3       6 UNK        -0.1929 
     42 C          28.9182   27.9165    3.4097 C.2       6 UNK         0.5070 
     43 O          28.2067   27.9147    4.4165 O.2       6 UNK        -0.5237 
     44 N          29.3494   29.0405    2.8277 N.am      7 UNK        -0.4739 
     45 CA         29.1106   30.4017    3.3053 C.3       7 UNK         0.0276 
     46 CB         29.2353   31.3687    2.1137 C.3       7 UNK        -0.1927 
     47 C          30.0925   30.7331    4.4414 C.2       7 UNK         0.5013 
     48 O          30.9602   31.5911    4.2701 O.2       7 UNK        -0.5193 
     49 N          29.9592   30.0043    5.5588 N.am      8 UNK        -0.4253 
     50 CA         30.9062   29.8513    6.6742 C.3       8 UNK         0.0242 
     51 CB         30.2463   28.9831    7.7581 C.3       8 UNK        -0.2000 
     52 C          31.5001   31.1282    7.3007 C.2       8 UNK         0.4948 
     53 O          32.5277   31.0329    7.9728 O.2       8 UNK        -0.5275 
     54 N          30.8834   32.2932    7.0620 N.am      9 UNK        -0.4246 
     55 CA         31.4290   33.6132    7.3914 C.3       9 UNK         0.0261 
     56 CB         30.3529   34.6802    7.1328 C.3       9 UNK        -0.1959 
     57 C          32.7230   33.9574    6.6226 C.2       9 UNK         0.5033 
     58 O          33.5091   34.7666    7.1185 O.2       9 UNK        -0.5390 
     59 N          32.9261   33.3467    5.4464 N.am      10 UNK        -0.4215 
     60 CA         34.1313   33.4876    4.6243 C.3       10 UNK         0.0240 
     61 CB         33.9068   34.5605    3.5445 C.3       10 UNK        -0.1982 
     62 C          34.5521   32.1513    3.9945 C.2       10 UNK         0.4970 
     63 O          35.7435   31.8414    3.9832 O.2       10 UNK        -0.4916 
     64 N          33.5736   31.3869    3.4927 N.am      11 UNK        -0.4279 
     65 CA         33.7144   30.0662    2.8605 C.3       11 UNK         0.1003 
     66 C          34.5624   30.0480    1.5504 C.2       11 UNK         0.5709 
     67 N          34.6887   31.1652    0.8431 N.am      11 UNK        -0.7358 
     68 O          35.0992   29.0180    1.1518 O.2       11 UNK        -0.4999 
     69 C69        34.0842   28.9565    3.8945 C.3       12 UNK        -0.0954 
     70 S70        32.9236   27.5516    3.8244 S.3       12 UNK        -0.2268 
     71 C71        33.9399   26.2751    3.0234 C.3       12 UNK         0.0203 
     72 H72        28.8007   18.6742   -0.9447 H         1 UNK         0.0888 
     73 H73        28.1024   19.5177   -2.3295 H         1 UNK         0.0888 
     74 H74        29.8405   19.6007   -2.0287 H         1 UNK         0.0888 
     75 H75        28.3805   19.7485    0.9779 H         1 UNK         0.3017 
     76 H76        28.9218   22.5782    1.2861 H         1 UNK         0.0873 
     77 H77        27.9369   20.5603    3.3523 H         1 UNK         0.0745 
     78 H78        28.5083   22.1670    3.6996 H         1 UNK         0.0745 
     79 H79        30.6255   22.6075    4.5659 H         1 UNK         0.0705 
     80 H80        32.0902   21.6817    4.3894 H         1 UNK         0.0705 
     81 H81        32.6574   24.3049    4.3955 H         1 UNK         0.1334 
     82 H82        33.3724   25.7187    0.4179 H         1 UNK         0.1417 
     83 H83        31.1430   22.1217    1.0206 H         1 UNK         0.1562 
     84 H84        31.3174   22.9565   -1.1712 H         1 UNK         0.0748 
     85 H85        33.0230   23.2960   -1.3076 H         1 UNK         0.0748 
     86 H86        29.5844   24.7674   -0.7898 H         1 UNK         0.0940 
     87 H87        29.3927   25.3004   -2.4318 H         1 UNK         0.0940 
     88 H88        30.3355   27.6156   -1.6326 H         1 UNK         0.0703 
     89 H89        27.5930   26.7119   -0.9354 H         1 UNK         0.3081 
     90 H90        26.2283   29.8893   -1.6031 H         1 UNK         0.0719 
     91 H91        26.3919   29.0612   -3.9545 H         1 UNK         0.0809 
     92 H92        25.9692   27.4371   -3.4308 H         1 UNK         0.0809 
     93 H93        24.7990   28.7500   -3.2863 H         1 UNK         0.0809 
     94 H94        25.0756   27.2897   -1.1275 H         1 UNK         0.2990 
     95 H95        25.5142   27.1904    2.3384 H         1 UNK         0.0690 
     96 H96        23.6482   28.8619    2.2901 H         1 UNK         0.0788 
     97 H97        23.0530   27.2388    2.5884 H         1 UNK         0.0788 
     98 H98        22.8715   27.9670    0.9911 H         1 UNK         0.0788 
     99 H99        23.7757   25.5925    0.8955 H         1 UNK         0.2993 
    100 H100       24.4558   23.3854    0.6245 H         1 UNK         0.0949 
    101 H101       24.6879   22.6792   -1.7783 H         1 UNK         0.0767 
    102 H102       24.0996   24.3301   -1.6723 H         1 UNK         0.0767 
    103 H103       25.7839   24.0260   -2.0809 H         1 UNK         0.0767 
    104 H104       27.0983   22.6943   -0.4916 H         1 UNK         0.3013 
    105 H105       28.4117   26.0784    0.9708 H         1 UNK         0.3121 
    106 H106       30.4338   26.4708    3.0096 H         1 UNK         0.0774 
    107 H107       28.7839   25.3059    4.4425 H         1 UNK         0.0815 
    108 H108       27.5715   25.4075    3.1704 H         1 UNK         0.0815 
    109 H109       29.0306   24.4426    2.9373 H         1 UNK         0.0815 
    110 H110       29.9769   28.9333    2.0358 H         1 UNK         0.2987 
    111 H111       28.0948   30.4759    3.7000 H         1 UNK         0.0949 
    112 H112       29.0586   32.3989    2.4257 H         1 UNK         0.0806 
    113 H113       30.2266   31.3283    1.6601 H         1 UNK         0.0806 
    114 H114       28.5042   31.1343    1.3392 H         1 UNK         0.0806 
    115 H115       29.2099   29.3196    5.5364 H         1 UNK         0.3010 
    116 H116       31.7546   29.2942    6.2720 H         1 UNK         0.0829 
    117 H117       29.3541   29.4601    8.1657 H         1 UNK         0.0813 
    118 H118       29.9568   28.0082    7.3649 H         1 UNK         0.0813 
    119 H119       30.9292   28.8027    8.5898 H         1 UNK         0.0813 
    120 H120       30.0530   32.2745    6.4877 H         1 UNK         0.3038 
    121 H121       31.6703   33.6185    8.4564 H         1 UNK         0.0769 
    122 H122       30.0569   34.7089    6.0832 H         1 UNK         0.0811 
    123 H123       30.7185   35.6741    7.3953 H         1 UNK         0.0811 
    124 H124       29.4597   34.4976    7.7305 H         1 UNK         0.0811 
    125 H125       32.2167   32.6948    5.1184 H         1 UNK         0.3204 
    126 H126       34.9637   33.8075    5.2552 H         1 UNK         0.0748 
    127 H127       34.7870   34.6675    2.9090 H         1 UNK         0.0771 
    128 H128       33.0622   34.3146    2.8996 H         1 UNK         0.0771 
    129 H129       33.7112   35.5349    3.9928 H         1 UNK         0.0771 
    130 H130       32.6099   31.6985    3.5776 H         1 UNK         0.2980 
    131 H131       32.7049   29.8636    2.5002 H         1 UNK         0.0545 
    132 H132       35.2322   31.1513   -0.0052 H         1 UNK         0.3459 
    133 H133       34.2510   32.0183    1.1503 H         1 UNK         0.3459 
    134 H134       34.0269   29.3439    4.9129 H         1 UNK         0.0616 
    135 H135       35.1134   28.6121    3.7800 H         1 UNK         0.0616 
    136 H136       34.5274   26.7255    2.2238 H         1 UNK         0.0634 
    137 H137       34.6562   25.8832    3.7467 H         1 UNK         0.0634 
@<TRIPOS>BOND
     1    1    2 1    
     2    1   72 1    
     3    1   73 1    
     4    1   74 1    
     5    2    3 2    
     6    2    4 am   BACKBONE|DICT|INTERRES
     7    4    5 1    
     8    4   75 1    
     9    5    6 1    
    10    5   35 1    
    11    5   76 1    
    12    6    7 1    
    13    6   77 1    
    14    6   78 1    
    15    7    8 1    
    16    8    9 1    
    17    8   79 1    
    18    8   80 1    
    19    9   10 ar   
    20    9   14 ar   
    21   10   11 ar   
    22   10   81 1    
    23   11   12 ar   
    24   11   71 1    
    25   12   13 ar   
    26   12   82 1    
    27   13   14 ar   
    28   13   15 1    
    29   14   83 1    
    30   15   16 1    
    31   15   84 1    
    32   15   85 1    
    33   16   17 1    
    34   17   18 1    
    35   17   86 1    
    36   17   87 1    
    37   18   19 1    
    38   18   37 1    
    39   18   88 1    
    40   19   20 am   BACKBONE|DICT|INTERRES
    41   19   89 1    
    42   20   21 2    
    43   20   22 1    
    44   22   23 1    
    45   22   24 1    
    46   22   90 1    
    47   23   91 1    
    48   23   92 1    
    49   23   93 1    
    50   24   25 am   BACKBONE|DICT|INTERRES
    51   24   94 1    
    52   25   26 2    
    53   25   27 1    
    54   27   28 1    
    55   27   29 1    
    56   27   95 1    
    57   28   96 1    
    58   28   97 1    
    59   28   98 1    
    60   29   30 am   BACKBONE|DICT|INTERRES
    61   29   99 1    
    62   30   31 2    
    63   30   32 1    
    64   32   33 1    
    65   32   34 1    
    66   32  100 1    
    67   33  101 1    
    68   33  102 1    
    69   33  103 1    
    70   34   35 am   BACKBONE|DICT|INTERRES
    71   34  104 1    
    72   35   36 2    
    73   37   38 2    
    74   37   39 am   BACKBONE|DICT|INTERRES
    75   39   40 1    
    76   39  105 1    
    77   40   41 1    
    78   40   42 1    
    79   40  106 1    
    80   41  107 1    
    81   41  108 1    
    82   41  109 1    
    83   42   43 2    
    84   42   44 am   BACKBONE|DICT|INTERRES
    85   44   45 1    
    86   44  110 1    
    87   45   46 1    
    88   45   47 1    
    89   45  111 1    
    90   46  112 1    
    91   46  113 1    
    92   46  114 1    
    93   47   48 2    
    94   47   49 am   BACKBONE|DICT|INTERRES
    95   49   50 1    
    96   49  115 1    
    97   50   51 1    
    98   50   52 1    
    99   50  116 1    
   100   51  117 1    
   101   51  118 1    
   102   51  119 1    
   103   52   53 2    
   104   52   54 am   BACKBONE|DICT|INTERRES
   105   54   55 1    
   106   54  120 1    
   107   55   56 1    
   108   55   57 1    
   109   55  121 1    
   110   56  122 1    
   111   56  123 1    
   112   56  124 1    
   113   57   58 2    
   114   57   59 am   BACKBONE|DICT|INTERRES
   115   59   60 1    
   116   59  125 1    
   117   60   61 1    
   118   60   62 1    
   119   60  126 1    
   120   61  127 1    
   121   61  128 1    
   122   61  129 1    
   123   62   63 2    
   124   62   64 am   BACKBONE|DICT|INTERRES
   125   64   65 1    
   126   64  130 1    
   127   65   66 1    
   128   65   69 1    
   129   65  131 1    
   130   66   67 am   BACKBONE|DICT|INTERRES
   131   66   68 2    
   132   67  132 1    
   133   67  133 1    
   134   69   70 1    
   135   69  134 1    
   136   69  135 1    
   137   70   71 1    
   138   71  136 1    
   139   71  137 1    
@<TRIPOS>SUBSTRUCTURE
     1 UNK         1 GROUP             0       ****    0 ROOT    
