@<TRIPOS>MOLECULE
3R136
137   139    1
SMALL
USER_CHARGES


@<TRIPOS>ATOM
      1 CA         30.4471   19.0494   -2.4989 C.3       0 UNK        -0.1979 
      2 C          30.2869   20.5393   -2.2373 C.2       0 UNK         0.4864 
      3 O          30.7076   21.3561   -3.0595 O.2       0 UNK        -0.5359 
      4 N          29.6768   20.9056   -1.1024 N.am      1 UNK        -0.4318 
      5 CA         29.4375   22.2883   -0.6718 C.3       1 UNK         0.0824 
      6 C6         29.2605   22.3945    0.8654 C.3       12 UNK        -0.0944 
      7 S7         30.7325   21.8055    1.7705 S.3       12 UNK        -0.2672 
      8 C8         31.5187   23.3807    2.2653 C.3       12 UNK         0.0333 
      9 C9         30.8446   24.1485    3.4074 C.ar      12 UNK        -0.0807 
     10 C10        31.3781   25.3907    3.7699 C.ar      12 UNK        -0.0894 
     11 C11        30.8176   26.1371    4.8109 C.ar      12 UNK        -0.0804 
     12 C12        29.7082   25.6367    5.4962 C.ar      12 UNK        -0.0824 
     13 C13        29.1590   24.4007    5.1466 C.ar      12 UNK        -0.0762 
     14 C14        29.7334   23.6597    4.1101 C.ar      12 UNK        -0.0782 
     15 C15        27.9357   23.8674    5.8777 C.3       12 UNK         0.0230 
     16 S16        26.4195   24.0807    4.8905 S.3       12 UNK        -0.2608 
     17 C17        26.2527   25.8994    4.8557 C.3       12 UNK        -0.0989 
     18 CA         26.8362   26.5325    3.5597 C.3       5 UNK         0.0716 
     19 N          26.2738   25.9872    2.3196 N.am      5 UNK        -0.4135 
     20 C          24.9924   26.0004    1.9302 C.2       4 UNK         0.5031 
     21 O          24.0748   26.5031    2.5811 O.2       4 UNK        -0.5229 
     22 CA         24.7184   25.3653    0.5520 C.3       4 UNK         0.0329 
     23 CB         23.3102   25.6873    0.0081 C.3       4 UNK        -0.2001 
     24 N          25.7506   25.7022   -0.4403 N.am      4 UNK        -0.4303 
     25 C          26.0965   26.9344   -0.8523 C.2       3 UNK         0.5044 
     26 O          25.5866   27.9613   -0.4073 O.2       3 UNK        -0.5152 
     27 CA         27.2317   27.0732   -1.8876 C.3       3 UNK         0.0319 
     28 CB         28.4587   27.7325   -1.2346 C.3       3 UNK        -0.2001 
     29 N          27.6488   25.8079   -2.4948 N.am      3 UNK        -0.4354 
     30 C          26.9188   25.0696   -3.3428 C.2       2 UNK         0.4964 
     31 O          25.8407   25.4343   -3.8121 O.2       2 UNK        -0.5047 
     32 CA         27.4623   23.6719   -3.7013 C.3       2 UNK         0.0288 
     33 CB         28.0836   23.6819   -5.1076 C.3       2 UNK        -0.2113 
     34 N          28.4413   23.1225   -2.7521 N.am      2 UNK        -0.4145 
     35 C          28.2484   22.9019   -1.4430 C.2       1 UNK         0.5006 
     36 O          27.1971   23.1709   -0.8565 O.2       1 UNK        -0.5103 
     37 C          26.8621   28.0782    3.6180 C.2       5 UNK         0.5055 
     38 O          27.1844   28.6272    4.6726 O.2       5 UNK        -0.5220 
     39 N          26.5930   28.7683    2.4973 N.am      6 UNK        -0.4450 
     40 CA         26.6875   30.2302    2.3856 C.3       6 UNK         0.0367 
     41 CB         25.7437   30.7188    1.2742 C.3       6 UNK        -0.1929 
     42 C          28.1234   30.7353    2.1362 C.2       6 UNK         0.5070 
     43 O          28.3184   31.9454    2.0110 O.2       6 UNK        -0.5237 
     44 N          29.1046   29.8245    2.0526 N.am      7 UNK        -0.4739 
     45 CA         30.5234   30.0908    1.7945 C.3       7 UNK         0.0276 
     46 CB         31.2029   28.7820    1.3492 C.3       7 UNK        -0.1927 
     47 C          31.2494   30.7500    2.9857 C.2       7 UNK         0.5013 
     48 O          32.2415   30.2139    3.4844 O.2       7 UNK        -0.5193 
     49 N          30.7725   31.9280    3.4056 N.am      8 UNK        -0.4253 
     50 CA         31.3376   32.7414    4.4888 C.3       8 UNK         0.0242 
     51 CB         30.4671   33.9905    4.6952 C.3       8 UNK        -0.2000 
     52 C          32.8095   33.1372    4.2699 C.2       8 UNK         0.4948 
     53 O          33.5457   33.2774    5.2446 O.2       8 UNK        -0.5275 
     54 N          33.2279   33.2573    3.0020 N.am      9 UNK        -0.4246 
     55 CA         34.6200   33.4693    2.5993 C.3       9 UNK         0.0261 
     56 CB         34.6636   33.8175    1.1024 C.3       9 UNK        -0.1959 
     57 C          35.5428   32.2706    2.8987 C.2       9 UNK         0.5033 
     58 O          36.7466   32.4775    3.0592 O.2       9 UNK        -0.5390 
     59 N          34.9821   31.0536    2.9635 N.am      10 UNK        -0.4215 
     60 CA         35.7034   29.8293    3.3106 C.3       10 UNK         0.0240 
     61 CB         35.1264   28.6388    2.5243 C.3       10 UNK        -0.1982 
     62 C          35.6402   29.5674    4.8214 C.2       10 UNK         0.4970 
     63 O          36.6757   29.2799    5.4230 O.2       10 UNK        -0.4916 
     64 N          34.4364   29.6645    5.4029 N.am      11 UNK        -0.4279 
     65 CA         34.1989   29.4420    6.8382 C.3       11 UNK         0.1003 
     66 C          34.7130   30.5764    7.7699 C.2       11 UNK         0.5709 
     67 N          34.8688   31.8106    7.3105 N.am      11 UNK        -0.7358 
     68 O          34.9927   30.3237    8.9396 O.2       11 UNK        -0.4999 
     69 C69        32.7141   29.0965    7.1242 C.3       12 UNK        -0.0954 
     70 S70        32.3434   27.3512    6.7512 S.3       12 UNK        -0.2268 
     71 C71        31.4056   27.4834    5.2025 C.3       12 UNK         0.0203 
     72 H72        30.0350   18.4469   -1.6895 H         1 UNK         0.0888 
     73 H73        29.9370   18.7736   -3.4214 H         1 UNK         0.0888 
     74 H74        31.5023   18.7990   -2.6043 H         1 UNK         0.0888 
     75 H75        29.3446   20.1932   -0.4679 H         1 UNK         0.3017 
     76 H76        30.3161   22.8830   -0.9328 H         1 UNK         0.0873 
     77 H77        28.4014   21.8075    1.1957 H         1 UNK         0.0745 
     78 H78        29.0515   23.4252    1.1584 H         1 UNK         0.0745 
     79 H79        32.5440   23.1591    2.5647 H         1 UNK         0.0705 
     80 H80        31.5886   24.0262    1.3884 H         1 UNK         0.0705 
     81 H81        32.2400   25.7764    3.2419 H         1 UNK         0.1334 
     82 H82        29.2719   26.2154    6.2992 H         1 UNK         0.1417 
     83 H83        29.2952   22.7050    3.8580 H         1 UNK         0.1562 
     84 H84        27.8149   24.3562    6.8458 H         1 UNK         0.0748 
     85 H85        28.0731   22.8059    6.0888 H         1 UNK         0.0748 
     86 H86        26.7385   26.3079    5.7436 H         1 UNK         0.0940 
     87 H87        25.1959   26.1491    4.9612 H         1 UNK         0.0940 
     88 H88        27.8893   26.2584    3.5124 H         1 UNK         0.0703 
     89 H89        26.9381   25.5388    1.7058 H         1 UNK         0.3081 
     90 H90        24.7766   24.2855    0.6983 H         1 UNK         0.0719 
     91 H91        23.1409   25.2119   -0.9581 H         1 UNK         0.0809 
     92 H92        23.1583   26.7602   -0.1147 H         1 UNK         0.0809 
     93 H93        22.5370   25.3256    0.6870 H         1 UNK         0.0809 
     94 H94        26.2576   24.9064   -0.8179 H         1 UNK         0.2990 
     95 H95        26.8675   27.7285   -2.6814 H         1 UNK         0.0690 
     96 H96        29.2528   27.9033   -1.9618 H         1 UNK         0.0788 
     97 H97        28.8639   27.1170   -0.4307 H         1 UNK         0.0788 
     98 H98        28.2039   28.7032   -0.8061 H         1 UNK         0.0788 
     99 H99        28.5331   25.4312   -2.1877 H         1 UNK         0.2993 
    100 H100       26.6062   22.9941   -3.7089 H         1 UNK         0.0949 
    101 H101       27.3727   24.0515   -5.8482 H         1 UNK         0.0767 
    102 H102       28.9658   24.3219   -5.1532 H         1 UNK         0.0767 
    103 H103       28.3796   22.6794   -5.4178 H         1 UNK         0.0767 
    104 H104       29.3225   22.7995   -3.1420 H         1 UNK         0.3013 
    105 H105       26.3037   28.2732    1.6614 H         1 UNK         0.3121 
    106 H106       26.3503   30.6751    3.3243 H         1 UNK         0.0774 
    107 H107       25.6687   31.8069    1.2779 H         1 UNK         0.0815 
    108 H108       26.0982   30.4254    0.2857 H         1 UNK         0.0815 
    109 H109       24.7353   30.3246    1.4018 H         1 UNK         0.0815 
    110 H110       28.8526   28.8595    2.1994 H         1 UNK         0.2987 
    111 H111       30.5893   30.7943    0.9616 H         1 UNK         0.0949 
    112 H112       31.1393   28.0104    2.1164 H         1 UNK         0.0806 
    113 H113       30.7520   28.3900    0.4389 H         1 UNK         0.0806 
    114 H114       32.2597   28.9422    1.1321 H         1 UNK         0.0806 
    115 H115       29.9264   32.2689    2.9547 H         1 UNK         0.3010 
    116 H116       31.2983   32.1407    5.3999 H         1 UNK         0.0829 
    117 H117       29.4408   33.7216    4.9462 H         1 UNK         0.0813 
    118 H118       30.8498   34.6027    5.5132 H         1 UNK         0.0813 
    119 H119       30.4413   34.6167    3.8024 H         1 UNK         0.0813 
    120 H120       32.5495   33.1426    2.2632 H         1 UNK         0.3038 
    121 H121       35.0040   34.3238    3.1607 H         1 UNK         0.0769 
    122 H122       35.6867   34.0117    0.7772 H         1 UNK         0.0811 
    123 H123       34.0821   34.7138    0.8854 H         1 UNK         0.0811 
    124 H124       34.2751   33.0055    0.4863 H         1 UNK         0.0811 
    125 H125       33.9742   30.9694    2.8846 H         1 UNK         0.3204 
    126 H126       36.7540   29.9315    3.0296 H         1 UNK         0.0748 
    127 H127       35.6935   27.7296    2.7281 H         1 UNK         0.0771 
    128 H128       34.0879   28.4359    2.7863 H         1 UNK         0.0771 
    129 H129       35.1721   28.8147    1.4495 H         1 UNK         0.0771 
    130 H130       33.6264   29.8874    4.8336 H         1 UNK         0.2980 
    131 H131       34.7925   28.5707    7.1237 H         1 UNK         0.0545 
    132 H132       34.5485   32.0822    6.3870 H         1 UNK         0.3459 
    133 H133       35.2139   32.5192    7.9372 H         1 UNK         0.3459 
    134 H134       32.4732   29.2362    8.1799 H         1 UNK         0.0616 
    135 H135       32.0436   29.7595    6.5745 H         1 UNK         0.0616 
    136 H136       32.0737   27.8467    4.4225 H         1 UNK         0.0634 
    137 H137       30.6063   28.2188    5.3080 H         1 UNK         0.0634 
@<TRIPOS>BOND
     1    1    2 1    
     2    1   72 1    
     3    1   73 1    
     4    1   74 1    
     5    2    3 2    
     6    2    4 am   BACKBONE|DICT|INTERRES
     7    4    5 1    
     8    4   75 1    
     9    5    6 1    
    10    5   35 1    
    11    5   76 1    
    12    6    7 1    
    13    6   77 1    
    14    6   78 1    
    15    7    8 1    
    16    8    9 1    
    17    8   79 1    
    18    8   80 1    
    19    9   10 ar   
    20    9   14 ar   
    21   10   11 ar   
    22   10   81 1    
    23   11   12 ar   
    24   11   71 1    
    25   12   13 ar   
    26   12   82 1    
    27   13   14 ar   
    28   13   15 1    
    29   14   83 1    
    30   15   16 1    
    31   15   84 1    
    32   15   85 1    
    33   16   17 1    
    34   17   18 1    
    35   17   86 1    
    36   17   87 1    
    37   18   19 1    
    38   18   37 1    
    39   18   88 1    
    40   19   20 am   BACKBONE|DICT|INTERRES
    41   19   89 1    
    42   20   21 2    
    43   20   22 1    
    44   22   23 1    
    45   22   24 1    
    46   22   90 1    
    47   23   91 1    
    48   23   92 1    
    49   23   93 1    
    50   24   25 am   BACKBONE|DICT|INTERRES
    51   24   94 1    
    52   25   26 2    
    53   25   27 1    
    54   27   28 1    
    55   27   29 1    
    56   27   95 1    
    57   28   96 1    
    58   28   97 1    
    59   28   98 1    
    60   29   30 am   BACKBONE|DICT|INTERRES
    61   29   99 1    
    62   30   31 2    
    63   30   32 1    
    64   32   33 1    
    65   32   34 1    
    66   32  100 1    
    67   33  101 1    
    68   33  102 1    
    69   33  103 1    
    70   34   35 am   BACKBONE|DICT|INTERRES
    71   34  104 1    
    72   35   36 2    
    73   37   38 2    
    74   37   39 am   BACKBONE|DICT|INTERRES
    75   39   40 1    
    76   39  105 1    
    77   40   41 1    
    78   40   42 1    
    79   40  106 1    
    80   41  107 1    
    81   41  108 1    
    82   41  109 1    
    83   42   43 2    
    84   42   44 am   BACKBONE|DICT|INTERRES
    85   44   45 1    
    86   44  110 1    
    87   45   46 1    
    88   45   47 1    
    89   45  111 1    
    90   46  112 1    
    91   46  113 1    
    92   46  114 1    
    93   47   48 2    
    94   47   49 am   BACKBONE|DICT|INTERRES
    95   49   50 1    
    96   49  115 1    
    97   50   51 1    
    98   50   52 1    
    99   50  116 1    
   100   51  117 1    
   101   51  118 1    
   102   51  119 1    
   103   52   53 2    
   104   52   54 am   BACKBONE|DICT|INTERRES
   105   54   55 1    
   106   54  120 1    
   107   55   56 1    
   108   55   57 1    
   109   55  121 1    
   110   56  122 1    
   111   56  123 1    
   112   56  124 1    
   113   57   58 2    
   114   57   59 am   BACKBONE|DICT|INTERRES
   115   59   60 1    
   116   59  125 1    
   117   60   61 1    
   118   60   62 1    
   119   60  126 1    
   120   61  127 1    
   121   61  128 1    
   122   61  129 1    
   123   62   63 2    
   124   62   64 am   BACKBONE|DICT|INTERRES
   125   64   65 1    
   126   64  130 1    
   127   65   66 1    
   128   65   69 1    
   129   65  131 1    
   130   66   67 am   BACKBONE|DICT|INTERRES
   131   66   68 2    
   132   67  132 1    
   133   67  133 1    
   134   69   70 1    
   135   69  134 1    
   136   69  135 1    
   137   70   71 1    
   138   71  136 1    
   139   71  137 1    
@<TRIPOS>SUBSTRUCTURE
     1 UNK         1 GROUP             0       ****    0 ROOT    
