@<TRIPOS>MOLECULE
3R136
137   139    1
SMALL
USER_CHARGES


@<TRIPOS>ATOM
      1 CA         27.6818   18.7749   -1.3609 C.3       0 UNK        -0.1979 
      2 C          26.8451   18.5097   -0.1107 C.2       0 UNK         0.4864 
      3 O          26.1424   17.5012   -0.0617 O.2       0 UNK        -0.5359 
      4 N          26.8908   19.3605    0.9254 N.am      1 UNK        -0.4318 
      5 CA         27.5971   20.6432    0.9941 C.3       1 UNK         0.0824 
      6 C6         27.7148   21.1189    2.4659 C.3       12 UNK        -0.0944 
      7 S7         28.6374   22.6797    2.6678 S.3       12 UNK        -0.2672 
      8 C8         30.3413   22.0729    2.8392 C.3       12 UNK         0.0333 
      9 C9         31.3168   23.2219    2.6549 C.ar      12 UNK        -0.0807 
     10 C10        31.7461   23.9683    3.7559 C.ar      12 UNK        -0.0894 
     11 C11        32.5908   25.0678    3.5766 C.ar      12 UNK        -0.0804 
     12 C12        33.0190   25.4075    2.2886 C.ar      12 UNK        -0.0824 
     13 C13        32.6151   24.6524    1.1840 C.ar      12 UNK        -0.0762 
     14 C14        31.7626   23.5612    1.3741 C.ar      12 UNK        -0.0782 
     15 C15        33.1201   24.9868   -0.2121 C.3       12 UNK         0.0230 
     16 S16        31.8008   25.6268   -1.2913 S.3       12 UNK        -0.2608 
     17 C17        31.7805   27.4034   -0.8742 C.3       12 UNK        -0.0989 
     18 CA         30.3332   27.9378   -0.6942 C.3       5 UNK         0.0716 
     19 N          29.6438   27.3341    0.4516 N.am      5 UNK        -0.4135 
     20 C          29.9504   27.4402    1.7535 C.2       4 UNK         0.5031 
     21 O          30.8214   28.1956    2.1959 O.2       4 UNK        -0.5229 
     22 CA         29.1699   26.5293    2.7265 C.3       4 UNK         0.0329 
     23 CB         28.9582   27.1737    4.1091 C.3       4 UNK        -0.2001 
     24 N          27.9124   25.9877    2.1936 N.am      4 UNK        -0.4303 
     25 C          26.8203   26.6726    1.8237 C.2       3 UNK         0.5044 
     26 O          26.7092   27.8932    1.9326 O.2       3 UNK        -0.5152 
     27 CA         25.6786   25.8487    1.1877 C.3       3 UNK         0.0319 
     28 CB         24.6609   26.7332    0.4368 C.3       3 UNK        -0.2001 
     29 N          26.1375   24.7622    0.3077 N.am      3 UNK        -0.4354 
     30 C          26.9866   24.8511   -0.7281 C.2       2 UNK         0.4964 
     31 O          27.5719   25.8886   -1.0429 O.2       2 UNK        -0.5047 
     32 CA         27.2453   23.5526   -1.5190 C.3       2 UNK         0.0288 
     33 CB         28.2813   23.7417   -2.6438 C.3       2 UNK        -0.2113 
     34 N          27.6949   22.4648   -0.6471 N.am      2 UNK        -0.4145 
     35 C          26.8980   21.6898    0.1006 C.2       1 UNK         0.5006 
     36 O          25.6700   21.8034    0.1322 O.2       1 UNK        -0.5103 
     37 C          30.2567   29.4811   -0.7738 C.2       5 UNK         0.5055 
     38 O          30.8699   30.0562   -1.6754 O.2       5 UNK        -0.5220 
     39 N          29.4909   30.1343    0.1081 N.am      6 UNK        -0.4450 
     40 CA         29.2775   31.5795    0.1584 C.3       6 UNK         0.0367 
     41 CB         30.5794   32.3034    0.5580 C.3       6 UNK        -0.1929 
     42 C          28.1398   31.8755    1.1454 C.2       6 UNK         0.5070 
     43 O          27.8049   31.0138    1.9604 O.2       6 UNK        -0.5237 
     44 N          27.5641   33.0847    1.0555 N.am      7 UNK        -0.4739 
     45 CA         26.4361   33.5486    1.8806 C.3       7 UNK         0.0276 
     46 CB         25.9538   34.9148    1.3667 C.3       7 UNK        -0.1927 
     47 C          26.7488   33.6162    3.3875 C.2       7 UNK         0.5013 
     48 O          25.8689   33.3450    4.2056 O.2       7 UNK        -0.5193 
     49 N          28.0048   33.9343    3.7124 N.am      8 UNK        -0.4253 
     50 CA         28.6437   33.6571    4.9932 C.3       8 UNK         0.0242 
     51 CB         29.1907   34.9608    5.5974 C.3       8 UNK        -0.2000 
     52 C          29.7742   32.6810    4.6551 C.2       8 UNK         0.4948 
     53 O          30.4865   32.9349    3.6816 O.2       8 UNK        -0.5275 
     54 N          29.8764   31.5823    5.4163 N.am      9 UNK        -0.4246 
     55 CA         30.6883   30.3934    5.1240 C.3       9 UNK         0.0261 
     56 CB         30.6863   29.4696    6.3547 C.3       9 UNK        -0.1959 
     57 C          32.1340   30.6876    4.6908 C.2       9 UNK         0.5033 
     58 O          32.8567   31.3768    5.4160 O.2       9 UNK        -0.5390 
     59 N          32.5423   30.1159    3.5476 N.am      10 UNK        -0.4215 
     60 CA         33.8698   30.3034    2.9450 C.3       10 UNK         0.0240 
     61 CB         33.8856   29.6506    1.5544 C.3       10 UNK        -0.1982 
     62 C          35.0332   29.7716    3.8048 C.2       10 UNK         0.4970 
     63 O          36.1725   30.1995    3.6176 O.2       10 UNK        -0.4916 
     64 N          34.7160   28.8653    4.7350 N.am      11 UNK        -0.4279 
     65 CA         35.6107   28.3342    5.7695 C.3       11 UNK         0.1003 
     66 C          35.9529   29.3540    6.8962 C.2       11 UNK         0.5709 
     67 N          35.2634   30.4844    7.0155 N.am      11 UNK        -0.7358 
     68 O          36.8712   29.1145    7.6766 O.2       11 UNK        -0.4999 
     69 C69        35.0478   27.0176    6.3698 C.3       12 UNK        -0.0954 
     70 S70        34.7942   25.7186    5.1140 S.3       12 UNK        -0.2268 
     71 C71        33.0176   25.9107    4.7664 C.3       12 UNK         0.0203 
     72 H72        27.6761   17.9009   -2.0120 H         1 UNK         0.0888 
     73 H73        27.2770   19.6110   -1.9300 H         1 UNK         0.0888 
     74 H74        28.7208   18.9844   -1.1105 H         1 UNK         0.0888 
     75 H75        26.3066   19.1573    1.7236 H         1 UNK         0.3017 
     76 H76        28.6108   20.4881    0.6216 H         1 UNK         0.0873 
     77 H77        26.7226   21.2602    2.8991 H         1 UNK         0.0745 
     78 H78        28.1966   20.3493    3.0717 H         1 UNK         0.0745 
     79 H79        30.4689   21.6111    3.8196 H         1 UNK         0.0705 
     80 H80        30.5374   21.2955    2.0993 H         1 UNK         0.0705 
     81 H81        31.3978   23.7104    4.7469 H         1 UNK         0.1334 
     82 H82        33.6760   26.2547    2.1525 H         1 UNK         0.1417 
     83 H83        31.4375   22.9842    0.5193 H         1 UNK         0.1562 
     84 H84        33.5263   24.0804   -0.6634 H         1 UNK         0.0748 
     85 H85        33.9455   25.6996   -0.1749 H         1 UNK         0.0748 
     86 H86        32.2990   27.9217   -1.6828 H         1 UNK         0.0940 
     87 H87        32.3677   27.5843    0.0253 H         1 UNK         0.0940 
     88 H88        29.7614   27.6064   -1.5625 H         1 UNK         0.0703 
     89 H89        28.8795   26.7198    0.1877 H         1 UNK         0.3081 
     90 H90        29.8073   25.6605    2.8732 H         1 UNK         0.0719 
     91 H91        28.4186   28.1187    4.0379 H         1 UNK         0.0809 
     92 H92        28.4011   26.5147    4.7747 H         1 UNK         0.0809 
     93 H93        29.9172   27.3727    4.5854 H         1 UNK         0.0809 
     94 H94        27.9022   24.9842    2.0615 H         1 UNK         0.2990 
     95 H95        25.1545   25.3714    2.0169 H         1 UNK         0.0690 
     96 H96        23.8433   26.1391    0.0286 H         1 UNK         0.0788 
     97 H97        25.1290   27.2718   -0.3881 H         1 UNK         0.0788 
     98 H98        24.2180   27.4758    1.1019 H         1 UNK         0.0788 
     99 H99        25.7337   23.8483    0.4870 H         1 UNK         0.2993 
    100 H100       26.2986   23.2689   -1.9844 H         1 UNK         0.0949 
    101 H101       28.4149   22.8253   -3.2190 H         1 UNK         0.0767 
    102 H102       27.9635   24.5167   -3.3427 H         1 UNK         0.0767 
    103 H103       29.2552   24.0371   -2.2509 H         1 UNK         0.0767 
    104 H104       28.6948   22.3437   -0.5768 H         1 UNK         0.3013 
    105 H105       28.9850   29.6189    0.8206 H         1 UNK         0.3121 
    106 H106       28.9602   31.9200   -0.8293 H         1 UNK         0.0774 
    107 H107       30.4016   33.3510    0.8032 H         1 UNK         0.0815 
    108 H108       31.0426   31.8358    1.4269 H         1 UNK         0.0815 
    109 H109       31.3099   32.2862   -0.2503 H         1 UNK         0.0815 
    110 H110       27.9032   33.7298    0.3554 H         1 UNK         0.2987 
    111 H111       25.6229   32.8301    1.7550 H         1 UNK         0.0949 
    112 H112       26.7353   35.6725    1.4362 H         1 UNK         0.0806 
    113 H113       25.6310   34.8576    0.3270 H         1 UNK         0.0806 
    114 H114       25.1023   35.2714    1.9482 H         1 UNK         0.0806 
    115 H115       28.6591   34.0706    2.9527 H         1 UNK         0.3010 
    116 H116       27.9445   33.1928    5.6923 H         1 UNK         0.0829 
    117 H117       28.3893   35.6765    5.7815 H         1 UNK         0.0813 
    118 H118       29.6837   34.7700    6.5514 H         1 UNK         0.0813 
    119 H119       29.9205   35.4373    4.9413 H         1 UNK         0.0813 
    120 H120       29.2579   31.5011    6.2099 H         1 UNK         0.3038 
    121 H121       30.1869   29.8775    4.3033 H         1 UNK         0.0769 
    122 H122       31.0937   29.9724    7.2329 H         1 UNK         0.0811 
    123 H123       31.2931   28.5796    6.1835 H         1 UNK         0.0811 
    124 H124       29.6791   29.1311    6.5983 H         1 UNK         0.0811 
    125 H125       31.8917   29.5232    3.0319 H         1 UNK         0.3204 
    126 H126       34.0232   31.3774    2.8215 H         1 UNK         0.0748 
    127 H127       34.8330   29.8337    1.0458 H         1 UNK         0.0771 
    128 H128       33.7550   28.5713    1.6231 H         1 UNK         0.0771 
    129 H129       33.0933   30.0466    0.9181 H         1 UNK         0.0771 
    130 H130       33.7501   28.5921    4.8082 H         1 UNK         0.2980 
    131 H131       36.5590   28.0968    5.2838 H         1 UNK         0.0545 
    132 H132       34.4988   30.7077    6.3870 H         1 UNK         0.3459 
    133 H133       35.5072   31.1291    7.7501 H         1 UNK         0.3459 
    134 H134       34.1109   27.2017    6.8991 H         1 UNK         0.0616 
    135 H135       35.7394   26.6143    7.1119 H         1 UNK         0.0616 
    136 H136       32.7837   26.9534    4.5531 H         1 UNK         0.0634 
    137 H137       32.4488   25.6426    5.6581 H         1 UNK         0.0634 
@<TRIPOS>BOND
     1    1    2 1    
     2    1   72 1    
     3    1   73 1    
     4    1   74 1    
     5    2    3 2    
     6    2    4 am   BACKBONE|DICT|INTERRES
     7    4    5 1    
     8    4   75 1    
     9    5    6 1    
    10    5   35 1    
    11    5   76 1    
    12    6    7 1    
    13    6   77 1    
    14    6   78 1    
    15    7    8 1    
    16    8    9 1    
    17    8   79 1    
    18    8   80 1    
    19    9   10 ar   
    20    9   14 ar   
    21   10   11 ar   
    22   10   81 1    
    23   11   12 ar   
    24   11   71 1    
    25   12   13 ar   
    26   12   82 1    
    27   13   14 ar   
    28   13   15 1    
    29   14   83 1    
    30   15   16 1    
    31   15   84 1    
    32   15   85 1    
    33   16   17 1    
    34   17   18 1    
    35   17   86 1    
    36   17   87 1    
    37   18   19 1    
    38   18   37 1    
    39   18   88 1    
    40   19   20 am   BACKBONE|DICT|INTERRES
    41   19   89 1    
    42   20   21 2    
    43   20   22 1    
    44   22   23 1    
    45   22   24 1    
    46   22   90 1    
    47   23   91 1    
    48   23   92 1    
    49   23   93 1    
    50   24   25 am   BACKBONE|DICT|INTERRES
    51   24   94 1    
    52   25   26 2    
    53   25   27 1    
    54   27   28 1    
    55   27   29 1    
    56   27   95 1    
    57   28   96 1    
    58   28   97 1    
    59   28   98 1    
    60   29   30 am   BACKBONE|DICT|INTERRES
    61   29   99 1    
    62   30   31 2    
    63   30   32 1    
    64   32   33 1    
    65   32   34 1    
    66   32  100 1    
    67   33  101 1    
    68   33  102 1    
    69   33  103 1    
    70   34   35 am   BACKBONE|DICT|INTERRES
    71   34  104 1    
    72   35   36 2    
    73   37   38 2    
    74   37   39 am   BACKBONE|DICT|INTERRES
    75   39   40 1    
    76   39  105 1    
    77   40   41 1    
    78   40   42 1    
    79   40  106 1    
    80   41  107 1    
    81   41  108 1    
    82   41  109 1    
    83   42   43 2    
    84   42   44 am   BACKBONE|DICT|INTERRES
    85   44   45 1    
    86   44  110 1    
    87   45   46 1    
    88   45   47 1    
    89   45  111 1    
    90   46  112 1    
    91   46  113 1    
    92   46  114 1    
    93   47   48 2    
    94   47   49 am   BACKBONE|DICT|INTERRES
    95   49   50 1    
    96   49  115 1    
    97   50   51 1    
    98   50   52 1    
    99   50  116 1    
   100   51  117 1    
   101   51  118 1    
   102   51  119 1    
   103   52   53 2    
   104   52   54 am   BACKBONE|DICT|INTERRES
   105   54   55 1    
   106   54  120 1    
   107   55   56 1    
   108   55   57 1    
   109   55  121 1    
   110   56  122 1    
   111   56  123 1    
   112   56  124 1    
   113   57   58 2    
   114   57   59 am   BACKBONE|DICT|INTERRES
   115   59   60 1    
   116   59  125 1    
   117   60   61 1    
   118   60   62 1    
   119   60  126 1    
   120   61  127 1    
   121   61  128 1    
   122   61  129 1    
   123   62   63 2    
   124   62   64 am   BACKBONE|DICT|INTERRES
   125   64   65 1    
   126   64  130 1    
   127   65   66 1    
   128   65   69 1    
   129   65  131 1    
   130   66   67 am   BACKBONE|DICT|INTERRES
   131   66   68 2    
   132   67  132 1    
   133   67  133 1    
   134   69   70 1    
   135   69  134 1    
   136   69  135 1    
   137   70   71 1    
   138   71  136 1    
   139   71  137 1    
@<TRIPOS>SUBSTRUCTURE
     1 UNK         1 GROUP             0       ****    0 ROOT    
