@<TRIPOS>MOLECULE
3R136
137   139    1
SMALL
USER_CHARGES


@<TRIPOS>ATOM
      1 CA         26.5035   17.3549    1.1210 C.3       0 UNK        -0.1979 
      2 C          27.2242   18.3132    0.1837 C.2       0 UNK         0.4864 
      3 O          27.2671   18.0689   -1.0236 O.2       0 UNK        -0.5359 
      4 N          27.7949   19.3940    0.7317 N.am      1 UNK        -0.4318 
      5 CA         28.4679   20.4584   -0.0205 C.3       1 UNK         0.0824 
      6 C6         29.5578   21.1575    0.8397 C.3       12 UNK        -0.0944 
      7 S7         30.9714   21.7301   -0.1678 S.3       12 UNK        -0.2672 
      8 C8         32.2942   21.8567    1.0775 C.3       12 UNK         0.0333 
      9 C9         32.1972   23.1505    1.8733 C.ar      12 UNK        -0.0807 
     10 C10        32.9846   24.2531    1.5306 C.ar      12 UNK        -0.0894 
     11 C11        32.9143   25.4440    2.2625 C.ar      12 UNK        -0.0804 
     12 C12        32.0237   25.5267    3.3429 C.ar      12 UNK        -0.0824 
     13 C13        31.2268   24.4307    3.6909 C.ar      12 UNK        -0.0762 
     14 C14        31.3309   23.2428    2.9633 C.ar      12 UNK        -0.0782 
     15 C15        30.2435   24.5120    4.8471 C.3       12 UNK         0.0230 
     16 S16        28.5364   24.5576    4.2181 S.3       12 UNK        -0.2608 
     17 C17        27.9303   26.1613    4.8350 C.3       12 UNK        -0.0989 
     18 CA         28.6243   27.4086    4.2270 C.3       5 UNK         0.0716 
     19 N          28.7565   27.3299    2.7671 N.am      5 UNK        -0.4135 
     20 C          29.3425   28.2470    1.9840 C.2       4 UNK         0.5031 
     21 O          29.8737   29.2722    2.4085 O.2       4 UNK        -0.5229 
     22 CA         29.2554   28.0394    0.4626 C.3       4 UNK         0.0329 
     23 CB         30.4798   27.2564   -0.0356 C.3       4 UNK        -0.2001 
     24 N          28.0365   27.3685   -0.0035 N.am      4 UNK        -0.4303 
     25 C          26.7655   27.6429    0.3297 C.2       3 UNK         0.5044 
     26 O          26.4475   28.5451    1.1070 O.2       3 UNK        -0.5152 
     27 CA         25.6536   26.7641   -0.2834 C.3       3 UNK         0.0319 
     28 CB         24.6659   27.6328   -1.0808 C.3       3 UNK        -0.2001 
     29 N          26.1175   25.6640   -1.1420 N.am      3 UNK        -0.4354 
     30 C          26.8397   24.6060   -0.7459 C.2       2 UNK         0.4964 
     31 O          27.2236   24.4451    0.4146 O.2       2 UNK        -0.5047 
     32 CA         27.2450   23.6132   -1.8544 C.3       2 UNK         0.0288 
     33 CB         28.1332   24.2988   -2.9103 C.3       2 UNK        -0.2113 
     34 N          27.9760   22.4605   -1.3275 N.am      2 UNK        -0.4145 
     35 C          27.4502   21.4691   -0.5988 C.2       1 UNK         0.5006 
     36 O          26.2411   21.3535   -0.3729 O.2       1 UNK        -0.5103 
     37 C          27.8907   28.6779    4.7163 C.2       5 UNK         0.5055 
     38 O          28.1615   29.1282    5.8298 O.2       5 UNK        -0.5220 
     39 N          26.9782   29.2161    3.8954 N.am      6 UNK        -0.4450 
     40 CA         26.2444   30.4534    4.1564 C.3       6 UNK         0.0367 
     41 CB         24.7366   30.1832    4.0244 C.3       6 UNK        -0.1929 
     42 C          26.6719   31.5667    3.1897 C.2       6 UNK         0.5070 
     43 O          26.7738   32.7187    3.6106 O.2       6 UNK        -0.5237 
     44 N          26.8984   31.2180    1.9142 N.am      7 UNK        -0.4739 
     45 CA         27.2147   32.1632    0.8399 C.3       7 UNK         0.0276 
     46 CB         27.0299   31.4705   -0.5200 C.3       7 UNK        -0.1927 
     47 C          28.6155   32.7895    0.9458 C.2       7 UNK         0.5013 
     48 O          28.7871   33.9304    0.5136 O.2       7 UNK        -0.5193 
     49 N          29.5795   32.0493    1.5081 N.am      8 UNK        -0.4253 
     50 CA         30.9464   32.5111    1.7548 C.3       8 UNK         0.0242 
     51 CB         31.9397   31.6658    0.9407 C.3       8 UNK        -0.2000 
     52 C          31.2692   32.4575    3.2523 C.2       8 UNK         0.4948 
     53 O          31.7893   33.4370    3.7878 O.2       8 UNK        -0.5275 
     54 N          30.9561   31.3252    3.9012 N.am      9 UNK        -0.4246 
     55 CA         31.0772   31.0026    5.3318 C.3       9 UNK         0.0261 
     56 CB         30.1886   31.9256    6.1872 C.3       9 UNK        -0.1959 
     57 C          32.5164   30.9534    5.8770 C.2       9 UNK         0.5033 
     58 O          32.8577   30.0125    6.5935 O.2       9 UNK        -0.5390 
     59 N          33.3388   31.9441    5.5183 N.am      10 UNK        -0.4215 
     60 CA         34.7585   32.0570    5.8634 C.3       10 UNK         0.0240 
     61 CB         35.1479   33.5456    5.8397 C.3       10 UNK        -0.1982 
     62 C          35.6805   31.2328    4.9414 C.2       10 UNK         0.4970 
     63 O          36.8987   31.2803    5.1205 O.2       10 UNK        -0.4916 
     64 N          35.1035   30.5240    3.9625 N.am      11 UNK        -0.4279 
     65 CA         35.7964   29.6536    3.0051 C.3       11 UNK         0.1003 
     66 C          36.5534   28.4585    3.6555 C.2       11 UNK         0.5709 
     67 N          37.5402   27.9058    2.9624 N.am      11 UNK        -0.7358 
     68 O          36.2419   28.0089    4.7571 O.2       11 UNK        -0.4999 
     69 C69        34.8348   29.2016    1.8732 C.3       12 UNK        -0.0954 
     70 S70        33.3851   28.2482    2.4510 S.3       12 UNK        -0.2268 
     71 C71        33.8569   26.5830    1.8720 C.3       12 UNK         0.0203 
     72 H72        25.4519   17.2809    0.8450 H         1 UNK         0.0888 
     73 H73        26.9450   16.3608    1.0540 H         1 UNK         0.0888 
     74 H74        26.5591   17.6808    2.1597 H         1 UNK         0.0888 
     75 H75        27.6890   19.5584    1.7225 H         1 UNK         0.3017 
     76 H76        28.9586   19.9862   -0.8750 H         1 UNK         0.0873 
     77 H77        29.1482   21.9951    1.4092 H         1 UNK         0.0745 
     78 H78        29.9514   20.4575    1.5787 H         1 UNK         0.0745 
     79 H79        32.2664   20.9955    1.7468 H         1 UNK         0.0705 
     80 H80        33.2564   21.8067    0.5655 H         1 UNK         0.0705 
     81 H81        33.6677   24.1788    0.6951 H         1 UNK         0.1334 
     82 H82        31.9519   26.4356    3.9229 H         1 UNK         0.1417 
     83 H83        30.7198   22.3944    3.2386 H         1 UNK         0.1562 
     84 H84        30.4504   25.3776    5.4774 H         1 UNK         0.0748 
     85 H85        30.3614   23.6364    5.4872 H         1 UNK         0.0748 
     86 H86        28.0249   26.1678    5.9230 H         1 UNK         0.0940 
     87 H87        26.8577   26.1868    4.6303 H         1 UNK         0.0940 
     88 H88        29.6399   27.4649    4.6226 H         1 UNK         0.0703 
     89 H89        28.3594   26.5085    2.3321 H         1 UNK         0.3081 
     90 H90        29.2763   29.0273    0.0012 H         1 UNK         0.0719 
     91 H91        30.5180   26.2517    0.3890 H         1 UNK         0.0809 
     92 H92        30.4816   27.1640   -1.1217 H         1 UNK         0.0809 
     93 H93        31.4044   27.7628    0.2432 H         1 UNK         0.0809 
     94 H94        28.1777   26.5904   -0.6297 H         1 UNK         0.2990 
     95 H95        25.1137   26.3198    0.5552 H         1 UNK         0.0690 
     96 H96        23.8234   27.0449   -1.4455 H         1 UNK         0.0788 
     97 H97        25.1460   28.1039   -1.9395 H         1 UNK         0.0788 
     98 H98        24.2536   28.4307   -0.4612 H         1 UNK         0.0788 
     99 H99        25.8612   25.7291   -2.1171 H         1 UNK         0.2993 
    100 H100       26.3322   23.2528   -2.3339 H         1 UNK         0.0949 
    101 H101       28.4282   23.5982   -3.6921 H         1 UNK         0.0767 
    102 H102       27.6130   25.1202   -3.4040 H         1 UNK         0.0767 
    103 H103       29.0440   24.7061   -2.4685 H         1 UNK         0.0767 
    104 H104       28.9840   22.4967   -1.4014 H         1 UNK         0.3013 
    105 H105       26.8273   28.7892    2.9857 H         1 UNK         0.3121 
    106 H106       26.4373   30.8088    5.1710 H         1 UNK         0.0774 
    107 H107       24.4750   29.8219    3.0288 H         1 UNK         0.0815 
    108 H108       24.1597   31.0912    4.2056 H         1 UNK         0.0815 
    109 H109       24.4047   29.4387    4.7481 H         1 UNK         0.0815 
    110 H110       26.7526   30.2505    1.6341 H         1 UNK         0.2987 
    111 H111       26.4936   32.9817    0.8984 H         1 UNK         0.0949 
    112 H112       27.7204   30.6381   -0.6491 H         1 UNK         0.0806 
    113 H113       26.0167   31.0844   -0.6345 H         1 UNK         0.0806 
    114 H114       27.2049   32.1684   -1.3400 H         1 UNK         0.0806 
    115 H115       29.3493   31.1211    1.8461 H         1 UNK         0.3010 
    116 H116       31.0610   33.5513    1.4424 H         1 UNK         0.0829 
    117 H117       31.8810   30.6070    1.1933 H         1 UNK         0.0813 
    118 H118       31.7525   31.7616   -0.1287 H         1 UNK         0.0813 
    119 H119       32.9646   31.9922    1.1203 H         1 UNK         0.0813 
    120 H120       30.5908   30.5562    3.3372 H         1 UNK         0.3038 
    121 H121       30.6838   29.9900    5.4283 H         1 UNK         0.0769 
    122 H122       30.2033   31.6177    7.2334 H         1 UNK         0.0811 
    123 H123       30.5180   32.9642    6.1483 H         1 UNK         0.0811 
    124 H124       29.1507   31.8898    5.8549 H         1 UNK         0.0811 
    125 H125       32.9450   32.6685    4.9171 H         1 UNK         0.3204 
    126 H126       34.9033   31.6826    6.8789 H         1 UNK         0.0748 
    127 H127       36.1862   33.6874    6.1426 H         1 UNK         0.0771 
    128 H128       35.0360   33.9748    4.8431 H         1 UNK         0.0771 
    129 H129       34.5316   34.1270    6.5259 H         1 UNK         0.0771 
    130 H130       34.0969   30.5049    3.9170 H         1 UNK         0.2980 
    131 H131       36.5623   30.2787    2.5419 H         1 UNK         0.0545 
    132 H132       37.8049   28.2583    2.0559 H         1 UNK         0.3459 
    133 H133       38.0379   27.1245    3.3599 H         1 UNK         0.3459 
    134 H134       34.4613   30.0798    1.3464 H         1 UNK         0.0616 
    135 H135       35.3772   28.6300    1.1183 H         1 UNK         0.0616 
    136 H136       34.8488   26.3458    2.2583 H         1 UNK         0.0634 
    137 H137       33.9447   26.6201    0.7849 H         1 UNK         0.0634 
@<TRIPOS>BOND
     1    1    2 1    
     2    1   72 1    
     3    1   73 1    
     4    1   74 1    
     5    2    3 2    
     6    2    4 am   BACKBONE|DICT|INTERRES
     7    4    5 1    
     8    4   75 1    
     9    5    6 1    
    10    5   35 1    
    11    5   76 1    
    12    6    7 1    
    13    6   77 1    
    14    6   78 1    
    15    7    8 1    
    16    8    9 1    
    17    8   79 1    
    18    8   80 1    
    19    9   10 ar   
    20    9   14 ar   
    21   10   11 ar   
    22   10   81 1    
    23   11   12 ar   
    24   11   71 1    
    25   12   13 ar   
    26   12   82 1    
    27   13   14 ar   
    28   13   15 1    
    29   14   83 1    
    30   15   16 1    
    31   15   84 1    
    32   15   85 1    
    33   16   17 1    
    34   17   18 1    
    35   17   86 1    
    36   17   87 1    
    37   18   19 1    
    38   18   37 1    
    39   18   88 1    
    40   19   20 am   BACKBONE|DICT|INTERRES
    41   19   89 1    
    42   20   21 2    
    43   20   22 1    
    44   22   23 1    
    45   22   24 1    
    46   22   90 1    
    47   23   91 1    
    48   23   92 1    
    49   23   93 1    
    50   24   25 am   BACKBONE|DICT|INTERRES
    51   24   94 1    
    52   25   26 2    
    53   25   27 1    
    54   27   28 1    
    55   27   29 1    
    56   27   95 1    
    57   28   96 1    
    58   28   97 1    
    59   28   98 1    
    60   29   30 am   BACKBONE|DICT|INTERRES
    61   29   99 1    
    62   30   31 2    
    63   30   32 1    
    64   32   33 1    
    65   32   34 1    
    66   32  100 1    
    67   33  101 1    
    68   33  102 1    
    69   33  103 1    
    70   34   35 am   BACKBONE|DICT|INTERRES
    71   34  104 1    
    72   35   36 2    
    73   37   38 2    
    74   37   39 am   BACKBONE|DICT|INTERRES
    75   39   40 1    
    76   39  105 1    
    77   40   41 1    
    78   40   42 1    
    79   40  106 1    
    80   41  107 1    
    81   41  108 1    
    82   41  109 1    
    83   42   43 2    
    84   42   44 am   BACKBONE|DICT|INTERRES
    85   44   45 1    
    86   44  110 1    
    87   45   46 1    
    88   45   47 1    
    89   45  111 1    
    90   46  112 1    
    91   46  113 1    
    92   46  114 1    
    93   47   48 2    
    94   47   49 am   BACKBONE|DICT|INTERRES
    95   49   50 1    
    96   49  115 1    
    97   50   51 1    
    98   50   52 1    
    99   50  116 1    
   100   51  117 1    
   101   51  118 1    
   102   51  119 1    
   103   52   53 2    
   104   52   54 am   BACKBONE|DICT|INTERRES
   105   54   55 1    
   106   54  120 1    
   107   55   56 1    
   108   55   57 1    
   109   55  121 1    
   110   56  122 1    
   111   56  123 1    
   112   56  124 1    
   113   57   58 2    
   114   57   59 am   BACKBONE|DICT|INTERRES
   115   59   60 1    
   116   59  125 1    
   117   60   61 1    
   118   60   62 1    
   119   60  126 1    
   120   61  127 1    
   121   61  128 1    
   122   61  129 1    
   123   62   63 2    
   124   62   64 am   BACKBONE|DICT|INTERRES
   125   64   65 1    
   126   64  130 1    
   127   65   66 1    
   128   65   69 1    
   129   65  131 1    
   130   66   67 am   BACKBONE|DICT|INTERRES
   131   66   68 2    
   132   67  132 1    
   133   67  133 1    
   134   69   70 1    
   135   69  134 1    
   136   69  135 1    
   137   70   71 1    
   138   71  136 1    
   139   71  137 1    
@<TRIPOS>SUBSTRUCTURE
     1 UNK         1 GROUP             0       ****    0 ROOT    
