@<TRIPOS>MOLECULE
3R136
137   139    1
SMALL
USER_CHARGES


@<TRIPOS>ATOM
      1 CA         29.7151   22.2922   -4.8989 C.3       0 UNK        -0.1979 
      2 C          29.1270   22.5429   -3.5180 C.2       0 UNK         0.4864 
      3 O          28.5708   21.6209   -2.9203 O.2       0 UNK        -0.5359 
      4 N          29.2480   23.7829   -3.0200 N.am      1 UNK        -0.4318 
      5 CA         28.7749   24.2583   -1.7098 C.3       1 UNK         0.0824 
      6 C6         29.5339   23.6355   -0.5038 C.3       12 UNK        -0.0944 
      7 S7         31.3292   23.9349   -0.6061 S.3       12 UNK        -0.2672 
      8 C8         31.9668   22.8409    0.7060 C.3       12 UNK         0.0333 
      9 C9         32.1583   23.5524    2.0418 C.ar      12 UNK        -0.0807 
     10 C10        32.9374   24.7117    2.1147 C.ar      12 UNK        -0.0894 
     11 C11        33.1900   25.3278    3.3430 C.ar      12 UNK        -0.0804 
     12 C12        32.6583   24.7755    4.5120 C.ar      12 UNK        -0.0824 
     13 C13        31.8882   23.6087    4.4580 C.ar      12 UNK        -0.0762 
     14 C14        31.6331   23.0079    3.2194 C.ar      12 UNK        -0.0782 
     15 C15        31.3855   22.9624    5.7435 C.3       12 UNK         0.0230 
     16 S16        29.5825   23.1050    5.9454 S.3       12 UNK        -0.2608 
     17 C17        29.3718   24.8981    6.2172 C.3       12 UNK        -0.0989 
     18 CA         28.9623   25.6394    4.9199 C.3       5 UNK         0.0716 
     19 N          27.7538   25.0651    4.3136 N.am      5 UNK        -0.4135 
     20 C          27.4168   25.1602    3.0225 C.2       4 UNK         0.5031 
     21 O          28.1001   25.7720    2.1955 O.2       4 UNK        -0.5229 
     22 CA         26.1049   24.4926    2.5720 C.3       4 UNK         0.0329 
     23 CB         25.0993   24.2110    3.7126 C.3       4 UNK        -0.2001 
     24 N          25.4973   25.2632    1.4830 N.am      4 UNK        -0.4303 
     25 C          24.9910   26.5060    1.5456 C.2       3 UNK         0.5044 
     26 O          24.7944   27.1097    2.6010 O.2       3 UNK        -0.5152 
     27 CA         24.6893   27.2298    0.2150 C.3       3 UNK         0.0319 
     28 CB         25.4093   28.5902    0.1677 C.3       3 UNK        -0.2001 
     29 N          25.0818   26.4611   -0.9693 N.am      3 UNK        -0.4354 
     30 C          24.3692   25.4745   -1.5304 C.2       2 UNK         0.4964 
     31 O          23.2371   25.1553   -1.1676 O.2       2 UNK        -0.5047 
     32 CA         25.0529   24.6838   -2.6635 C.3       2 UNK         0.0288 
     33 CB         24.6202   25.2255   -4.0356 C.3       2 UNK        -0.2113 
     34 N          26.5211   24.6741   -2.5884 N.am      2 UNK        -0.4145 
     35 C          27.2395   24.1449   -1.5845 C.2       1 UNK         0.5006 
     36 O          26.7287   23.6012   -0.6038 O.2       1 UNK        -0.5103 
     37 C          28.8327   27.1683    5.1158 C.2       5 UNK         0.5055 
     38 O          29.0517   27.6803    6.2135 O.2       5 UNK        -0.5220 
     39 N          28.4739   27.8623    4.0336 N.am      6 UNK        -0.4450 
     40 CA         28.3313   29.3098    3.9084 C.3       6 UNK         0.0367 
     41 CB         26.9373   29.7451    4.3992 C.3       6 UNK        -0.1929 
     42 C          28.6068   29.7310    2.4534 C.2       6 UNK         0.5070 
     43 O          28.0884   30.7511    2.0000 O.2       6 UNK        -0.5237 
     44 N          29.4055   28.9266    1.7341 N.am      7 UNK        -0.4739 
     45 CA         29.7565   29.1139    0.3232 C.3       7 UNK         0.0276 
     46 CB         30.3865   27.8111   -0.1966 C.3       7 UNK        -0.1927 
     47 C          30.6924   30.3100    0.0666 C.2       7 UNK         0.5013 
     48 O          30.7696   30.7827   -1.0682 O.2       7 UNK        -0.5193 
     49 N          31.3770   30.7763    1.1146 N.am      8 UNK        -0.4253 
     50 CA         32.2589   31.9346    1.1320 C.3       8 UNK         0.0242 
     51 CB         33.6644   31.5214    0.6554 C.3       8 UNK        -0.2000 
     52 C          32.3001   32.4744    2.5651 C.2       8 UNK         0.4948 
     53 O          31.8955   31.7722    3.4980 O.2       8 UNK        -0.5275 
     54 N          32.8486   33.6855    2.7304 N.am      9 UNK        -0.4246 
     55 CA         33.0641   34.3353    4.0309 C.3       9 UNK         0.0261 
     56 CB         33.5758   35.7676    3.8069 C.3       9 UNK        -0.1959 
     57 C          34.0162   33.5616    4.9646 C.2       9 UNK         0.5033 
     58 O          33.8975   33.6847    6.1840 O.2       9 UNK        -0.5390 
     59 N          34.9198   32.7623    4.3792 N.am      10 UNK        -0.4215 
     60 CA         35.7837   31.8150    5.0857 C.3       10 UNK         0.0240 
     61 CB         36.9019   31.3498    4.1383 C.3       10 UNK        -0.1982 
     62 C          35.0189   30.6005    5.6458 C.2       10 UNK         0.4970 
     63 O          35.4633   30.0277    6.6414 O.2       10 UNK        -0.4916 
     64 N          33.9038   30.2248    5.0048 N.am      11 UNK        -0.4279 
     65 CA         33.0108   29.1480    5.4520 C.3       11 UNK         0.1003 
     66 C          32.0343   29.6567    6.5423 C.2       11 UNK         0.5709 
     67 N          31.3755   30.7888    6.3185 N.am      11 UNK        -0.7358 
     68 O          31.8945   29.0387    7.5944 O.2       11 UNK        -0.4999 
     69 C69        32.2301   28.4808    4.2853 C.3       12 UNK        -0.0954 
     70 S70        33.2550   28.0616    2.8383 S.3       12 UNK        -0.2268 
     71 C71        34.0934   26.5506    3.4030 C.3       12 UNK         0.0203 
     72 H72        28.9349   21.9641   -5.5852 H         1 UNK         0.0888 
     73 H73        30.1784   23.1867   -5.3150 H         1 UNK         0.0888 
     74 H74        30.4737   21.5117   -4.8465 H         1 UNK         0.0888 
     75 H75        29.7310   24.4774   -3.5731 H         1 UNK         0.3017 
     76 H76        28.9815   25.3292   -1.6931 H         1 UNK         0.0873 
     77 H77        29.1797   24.0590    0.4374 H         1 UNK         0.0745 
     78 H78        29.3502   22.5612   -0.4491 H         1 UNK         0.0745 
     79 H79        32.9354   22.4544    0.3864 H         1 UNK         0.0705 
     80 H80        31.3153   21.9721    0.8112 H         1 UNK         0.0705 
     81 H81        33.3661   25.1267    1.2125 H         1 UNK         0.1334 
     82 H82        32.8696   25.2377    5.4667 H         1 UNK         0.1417 
     83 H83        31.0493   22.0981    3.1805 H         1 UNK         0.1562 
     84 H84        31.8815   23.3889    6.6169 H         1 UNK         0.0748 
     85 H85        31.6514   21.9044    5.7347 H         1 UNK         0.0748 
     86 H86        30.2976   25.3118    6.6220 H         1 UNK         0.0940 
     87 H87        28.6158   25.0384    6.9920 H         1 UNK         0.0940 
     88 H88        29.7797   25.5056    4.2080 H         1 UNK         0.0703 
     89 H89        27.1403   24.5643    4.9390 H         1 UNK         0.3081 
     90 H90        26.3889   23.5328    2.1384 H         1 UNK         0.0719 
     91 H91        25.4838   23.4590    4.4025 H         1 UNK         0.0809 
     92 H92        24.1595   23.8245    3.3181 H         1 UNK         0.0809 
     93 H93        24.8700   25.1057    4.2925 H         1 UNK         0.0809 
     94 H94        25.6643   24.8665    0.5649 H         1 UNK         0.2990 
     95 H95        23.6129   27.4101    0.1803 H         1 UNK         0.0690 
     96 H96        25.1895   29.1265   -0.7556 H         1 UNK         0.0788 
     97 H97        26.4913   28.4748    0.2423 H         1 UNK         0.0788 
     98 H98        25.0962   29.2318    0.9928 H         1 UNK         0.0788 
     99 H99        25.9987   26.6546   -1.3442 H         1 UNK         0.2993 
    100 H100       24.7138   23.6487   -2.5809 H         1 UNK         0.0949 
    101 H101       23.5335   25.2192   -4.1328 H         1 UNK         0.0767 
    102 H102       24.9552   26.2522   -4.1891 H         1 UNK         0.0767 
    103 H103       25.0187   24.6159   -4.8471 H         1 UNK         0.0767 
    104 H104       27.0154   25.0824   -3.3690 H         1 UNK         0.3013 
    105 H105       28.2822   27.3227    3.1900 H         1 UNK         0.3121 
    106 H106       29.0879   29.7965    4.5274 H         1 UNK         0.0774 
    107 H107       26.8240   30.8288    4.3517 H         1 UNK         0.0815 
    108 H108       26.1454   29.3044    3.7922 H         1 UNK         0.0815 
    109 H109       26.7699   29.4494    5.4349 H         1 UNK         0.0815 
    110 H110       29.8047   28.1148    2.1830 H         1 UNK         0.2987 
    111 H111       28.8353   29.2994   -0.2329 H         1 UNK         0.0949 
    112 H112       29.7222   26.9606   -0.0424 H         1 UNK         0.0806 
    113 H113       30.5934   27.8744   -1.2657 H         1 UNK         0.0806 
    114 H114       31.3295   27.5896    0.3053 H         1 UNK         0.0806 
    115 H115       31.2183   30.3669    2.0263 H         1 UNK         0.3010 
    116 H116       31.8529   32.7107    0.4797 H         1 UNK         0.0829 
    117 H117       33.6356   31.1171   -0.3566 H         1 UNK         0.0813 
    118 H118       34.3464   32.3721    0.6395 H         1 UNK         0.0813 
    119 H119       34.1016   30.7601    1.3031 H         1 UNK         0.0813 
    120 H120       33.1541   34.1972    1.9143 H         1 UNK         0.3038 
    121 H121       32.0964   34.3921    4.5341 H         1 UNK         0.0769 
    122 H122       34.5323   35.7788    3.2827 H         1 UNK         0.0811 
    123 H123       33.7196   36.2834    4.7575 H         1 UNK         0.0811 
    124 H124       32.8661   36.3573    3.2262 H         1 UNK         0.0811 
    125 H125       34.9639   32.7550    3.3712 H         1 UNK         0.3204 
    126 H126       36.2422   32.3349    5.9297 H         1 UNK         0.0748 
    127 H127       37.5823   30.6643    4.6458 H         1 UNK         0.0771 
    128 H128       36.5036   30.8273    3.2673 H         1 UNK         0.0771 
    129 H129       37.4982   32.1909    3.7837 H         1 UNK         0.0771 
    130 H130       33.5530   30.7849    4.2395 H         1 UNK         0.2980 
    131 H131       33.6237   28.3692    5.9093 H         1 UNK         0.0545 
    132 H132       31.4976   31.2813    5.4411 H         1 UNK         0.3459 
    133 H133       30.7447   31.1429    7.0188 H         1 UNK         0.3459 
    134 H134       31.4400   29.1418    3.9293 H         1 UNK         0.0616 
    135 H135       31.7312   27.5766    4.6349 H         1 UNK         0.0616 
    136 H136       34.4849   26.6996    4.4099 H         1 UNK         0.0634 
    137 H137       34.9628   26.3820    2.7660 H         1 UNK         0.0634 
@<TRIPOS>BOND
     1    1    2 1    
     2    1   72 1    
     3    1   73 1    
     4    1   74 1    
     5    2    3 2    
     6    2    4 am   BACKBONE|DICT|INTERRES
     7    4    5 1    
     8    4   75 1    
     9    5    6 1    
    10    5   35 1    
    11    5   76 1    
    12    6    7 1    
    13    6   77 1    
    14    6   78 1    
    15    7    8 1    
    16    8    9 1    
    17    8   79 1    
    18    8   80 1    
    19    9   10 ar   
    20    9   14 ar   
    21   10   11 ar   
    22   10   81 1    
    23   11   12 ar   
    24   11   71 1    
    25   12   13 ar   
    26   12   82 1    
    27   13   14 ar   
    28   13   15 1    
    29   14   83 1    
    30   15   16 1    
    31   15   84 1    
    32   15   85 1    
    33   16   17 1    
    34   17   18 1    
    35   17   86 1    
    36   17   87 1    
    37   18   19 1    
    38   18   37 1    
    39   18   88 1    
    40   19   20 am   BACKBONE|DICT|INTERRES
    41   19   89 1    
    42   20   21 2    
    43   20   22 1    
    44   22   23 1    
    45   22   24 1    
    46   22   90 1    
    47   23   91 1    
    48   23   92 1    
    49   23   93 1    
    50   24   25 am   BACKBONE|DICT|INTERRES
    51   24   94 1    
    52   25   26 2    
    53   25   27 1    
    54   27   28 1    
    55   27   29 1    
    56   27   95 1    
    57   28   96 1    
    58   28   97 1    
    59   28   98 1    
    60   29   30 am   BACKBONE|DICT|INTERRES
    61   29   99 1    
    62   30   31 2    
    63   30   32 1    
    64   32   33 1    
    65   32   34 1    
    66   32  100 1    
    67   33  101 1    
    68   33  102 1    
    69   33  103 1    
    70   34   35 am   BACKBONE|DICT|INTERRES
    71   34  104 1    
    72   35   36 2    
    73   37   38 2    
    74   37   39 am   BACKBONE|DICT|INTERRES
    75   39   40 1    
    76   39  105 1    
    77   40   41 1    
    78   40   42 1    
    79   40  106 1    
    80   41  107 1    
    81   41  108 1    
    82   41  109 1    
    83   42   43 2    
    84   42   44 am   BACKBONE|DICT|INTERRES
    85   44   45 1    
    86   44  110 1    
    87   45   46 1    
    88   45   47 1    
    89   45  111 1    
    90   46  112 1    
    91   46  113 1    
    92   46  114 1    
    93   47   48 2    
    94   47   49 am   BACKBONE|DICT|INTERRES
    95   49   50 1    
    96   49  115 1    
    97   50   51 1    
    98   50   52 1    
    99   50  116 1    
   100   51  117 1    
   101   51  118 1    
   102   51  119 1    
   103   52   53 2    
   104   52   54 am   BACKBONE|DICT|INTERRES
   105   54   55 1    
   106   54  120 1    
   107   55   56 1    
   108   55   57 1    
   109   55  121 1    
   110   56  122 1    
   111   56  123 1    
   112   56  124 1    
   113   57   58 2    
   114   57   59 am   BACKBONE|DICT|INTERRES
   115   59   60 1    
   116   59  125 1    
   117   60   61 1    
   118   60   62 1    
   119   60  126 1    
   120   61  127 1    
   121   61  128 1    
   122   61  129 1    
   123   62   63 2    
   124   62   64 am   BACKBONE|DICT|INTERRES
   125   64   65 1    
   126   64  130 1    
   127   65   66 1    
   128   65   69 1    
   129   65  131 1    
   130   66   67 am   BACKBONE|DICT|INTERRES
   131   66   68 2    
   132   67  132 1    
   133   67  133 1    
   134   69   70 1    
   135   69  134 1    
   136   69  135 1    
   137   70   71 1    
   138   71  136 1    
   139   71  137 1    
@<TRIPOS>SUBSTRUCTURE
     1 UNK         1 GROUP             0       ****    0 ROOT    
