@<TRIPOS>MOLECULE
3R136
137   139    1
SMALL
USER_CHARGES


@<TRIPOS>ATOM
      1 CA         34.6505   24.5595   -0.6321 C.3       0 UNK        -0.1979 
      2 C          33.2594   24.8429   -0.0859 C.2       0 UNK         0.4864 
      3 O          33.0458   25.8938    0.5154 O.2       0 UNK        -0.5359 
      4 N          32.3183   23.9112   -0.2939 N.am      1 UNK        -0.4318 
      5 CA         30.9310   23.9681    0.1894 C.3       1 UNK         0.0824 
      6 C6         30.1505   22.6592   -0.1127 C.3       12 UNK        -0.0944 
      7 S7         31.0719   21.1372    0.2945 S.3       12 UNK        -0.2672 
      8 C8         30.2073   20.5594    1.7893 C.3       12 UNK         0.0333 
      9 C9         30.3604   21.4973    2.9818 C.ar      12 UNK        -0.0807 
     10 C10        31.6104   22.0196    3.3315 C.ar      12 UNK        -0.0894 
     11 C11        31.7517   22.8413    4.4527 C.ar      12 UNK        -0.0804 
     12 C12        30.6341   23.1245    5.2425 C.ar      12 UNK        -0.0824 
     13 C13        29.3789   22.6050    4.9073 C.ar      12 UNK        -0.0762 
     14 C14        29.2478   21.8006    3.7716 C.ar      12 UNK        -0.0782 
     15 C15        28.1739   22.8614    5.8012 C.3       12 UNK         0.0230 
     16 S16        27.7933   24.6296    5.9817 S.3       12 UNK        -0.2608 
     17 C17        27.1791   25.0845    4.3174 C.3       12 UNK        -0.0989 
     18 CA         28.0057   26.1788    3.5706 C.3       5 UNK         0.0716 
     19 N          27.3578   26.6603    2.3407 N.am      5 UNK        -0.4135 
     20 C          26.1872   27.3157    2.2572 C.2       4 UNK         0.5031 
     21 O          25.4422   27.5164    3.2183 O.2       4 UNK        -0.5229 
     22 CA         25.7720   27.8818    0.8908 C.3       4 UNK         0.0329 
     23 CB         26.3326   29.3019    0.7165 C.3       4 UNK        -0.2001 
     24 N          26.1700   27.0678   -0.2548 N.am      4 UNK        -0.4303 
     25 C          25.6669   25.8727   -0.5836 C.2       3 UNK         0.5044 
     26 O          24.8394   25.2708    0.1013 O.2       3 UNK        -0.5152 
     27 CA         26.1456   25.2388   -1.9078 C.3       3 UNK         0.0319 
     28 CB         25.2517   25.6806   -3.0828 C.3       3 UNK        -0.2001 
     29 N          27.5711   25.4371   -2.2151 N.am      3 UNK        -0.4354 
     30 C          28.2420   26.5761   -2.4527 C.2       2 UNK         0.4964 
     31 O          27.7029   27.6802   -2.5439 O.2       2 UNK        -0.5047 
     32 CA         29.7789   26.4655   -2.5408 C.3       2 UNK         0.0288 
     33 CB         30.4875   27.8047   -2.2551 C.3       2 UNK        -0.2113 
     34 N          30.3589   25.4071   -1.6999 N.am      2 UNK        -0.4145 
     35 C          30.1532   25.1666   -0.3914 C.2       1 UNK         0.5006 
     36 O          29.3762   25.8007    0.3269 O.2       1 UNK        -0.5103 
     37 C          28.4437   27.3647    4.4629 C.2       5 UNK         0.5055 
     38 O          29.6336   27.6728    4.5256 O.2       5 UNK        -0.5220 
     39 N          27.4808   28.0033    5.1360 N.am      6 UNK        -0.4450 
     40 CA         27.6841   29.0952    6.0826 C.3       6 UNK         0.0367 
     41 CB         26.6355   28.9762    7.2039 C.3       6 UNK        -0.1929 
     42 C          27.6198   30.4476    5.3565 C.2       6 UNK         0.5070 
     43 O          26.6274   31.1690    5.4733 O.2       6 UNK        -0.5237 
     44 N          28.6806   30.7635    4.6106 N.am      7 UNK        -0.4739 
     45 CA         28.8863   32.0381    3.9270 C.3       7 UNK         0.0276 
     46 CB         28.2421   31.9957    2.5301 C.3       7 UNK        -0.1927 
     47 C          30.3911   32.2978    3.8258 C.2       7 UNK         0.5013 
     48 O          31.1691   31.3406    3.8221 O.2       7 UNK        -0.5193 
     49 N          30.7805   33.5731    3.6962 N.am      8 UNK        -0.4253 
     50 CA         32.1793   34.0112    3.5801 C.3       8 UNK         0.0242 
     51 CB         32.2386   35.5466    3.6290 C.3       8 UNK        -0.2000 
     52 C          32.9020   33.4839    2.3256 C.2       8 UNK         0.4948 
     53 O          34.1173   33.2921    2.3633 O.2       8 UNK        -0.5275 
     54 N          32.1396   33.2353    1.2522 N.am      9 UNK        -0.4246 
     55 CA         32.6047   32.5932    0.0197 C.3       9 UNK         0.0261 
     56 CB         31.6994   33.0461   -1.1395 C.3       9 UNK        -0.1959 
     57 C          32.6360   31.0528    0.1096 C.2       9 UNK         0.5033 
     58 O          33.1021   30.4148   -0.8358 O.2       9 UNK        -0.5390 
     59 N          32.1228   30.4866    1.2088 N.am      10 UNK        -0.4215 
     60 CA         32.0165   29.0570    1.4743 C.3       10 UNK         0.0240 
     61 CB         30.5266   28.7134    1.6694 C.3       10 UNK        -0.1982 
     62 C          32.9123   28.7122    2.6794 C.2       10 UNK         0.4970 
     63 O          34.0975   29.0523    2.6565 O.2       10 UNK        -0.4916 
     64 N          32.3509   28.0574    3.7023 N.am      11 UNK        -0.4279 
     65 CA         33.0335   27.6299    4.9323 C.3       11 UNK         0.1003 
     66 C          32.7602   28.5664    6.1465 C.2       11 UNK         0.5709 
     67 N          32.1481   29.7328    5.9816 N.am      11 UNK        -0.7358 
     68 O          33.1374   28.2437    7.2710 O.2       11 UNK        -0.4999 
     69 C69        32.7094   26.1450    5.2565 C.3       12 UNK        -0.0954 
     70 S70        33.4206   25.0045    4.0250 S.3       12 UNK        -0.2268 
     71 C71        33.1202   23.3955    4.8167 C.3       12 UNK         0.0203 
     72 H72        34.9393   25.3342   -1.3419 H         1 UNK         0.0888 
     73 H73        35.3761   24.5539    0.1809 H         1 UNK         0.0888 
     74 H74        34.7022   23.5964   -1.1397 H         1 UNK         0.0888 
     75 H75        32.5681   23.0538   -0.7667 H         1 UNK         0.3017 
     76 H76        30.9744   24.1027    1.2727 H         1 UNK         0.0873 
     77 H77        29.9007   22.5926   -1.1736 H         1 UNK         0.0745 
     78 H78        29.1965   22.6596    0.4187 H         1 UNK         0.0745 
     79 H79        29.1549   20.4042    1.5459 H         1 UNK         0.0705 
     80 H80        30.6062   19.5825    2.0653 H         1 UNK         0.0705 
     81 H81        32.4782   21.7848    2.7303 H         1 UNK         0.1334 
     82 H82        30.7399   23.7445    6.1223 H         1 UNK         0.1417 
     83 H83        28.2817   21.3852    3.5181 H         1 UNK         0.1562 
     84 H84        28.3796   22.4477    6.7894 H         1 UNK         0.0748 
     85 H85        27.2878   22.3420    5.4327 H         1 UNK         0.0748 
     86 H86        26.1456   25.4031    4.4529 H         1 UNK         0.0940 
     87 H87        27.1228   24.1919    3.6929 H         1 UNK         0.0940 
     88 H88        28.9301   25.6995    3.2420 H         1 UNK         0.0703 
     89 H89        27.9082   26.5369    1.4949 H         1 UNK         0.3081 
     90 H90        24.6818   27.9461    0.8839 H         1 UNK         0.0719 
     91 H91        26.0258   29.9445    1.5427 H         1 UNK         0.0809 
     92 H92        27.4227   29.3044    0.6851 H         1 UNK         0.0809 
     93 H93        25.9701   29.7626   -0.2026 H         1 UNK         0.0809 
     94 H94        26.8191   27.4855   -0.9167 H         1 UNK         0.2990 
     95 H95        26.0216   24.1608   -1.7925 H         1 UNK         0.0690 
     96 H96        25.5369   25.1799   -4.0080 H         1 UNK         0.0788 
     97 H97        25.3023   26.7563   -3.2541 H         1 UNK         0.0788 
     98 H98        24.2069   25.4339   -2.8896 H         1 UNK         0.0788 
     99 H99        28.1307   24.5995   -2.1443 H         1 UNK         0.2993 
    100 H100       29.9964   26.1922   -3.5745 H         1 UNK         0.0949 
    101 H101       30.2753   28.1586   -1.2487 H         1 UNK         0.0767 
    102 H102       31.5695   27.7126   -2.3518 H         1 UNK         0.0767 
    103 H103       30.1660   28.5813   -2.9501 H         1 UNK         0.0767 
    104 H104       31.0138   24.7992   -2.1721 H         1 UNK         0.3013 
    105 H105       26.5213   27.7683    4.9030 H         1 UNK         0.3121 
    106 H106       28.6720   29.0067    6.5409 H         1 UNK         0.0774 
    107 H107       26.7524   29.7782    7.9338 H         1 UNK         0.0815 
    108 H108       25.6175   29.0320    6.8160 H         1 UNK         0.0815 
    109 H109       26.7374   28.0325    7.7401 H         1 UNK         0.0815 
    110 H110       29.4672   30.1252    4.5722 H         1 UNK         0.2987 
    111 H111       28.4379   32.8421    4.5153 H         1 UNK         0.0949 
    112 H112       27.1669   31.8319    2.5988 H         1 UNK         0.0806 
    113 H113       28.3885   32.9364    1.9983 H         1 UNK         0.0806 
    114 H114       28.6640   31.2017    1.9134 H         1 UNK         0.0806 
    115 H115       30.0789   34.3002    3.6989 H         1 UNK         0.3010 
    116 H116       32.7173   33.6210    4.4471 H         1 UNK         0.0829 
    117 H117       31.6922   35.9996    2.8007 H         1 UNK         0.0813 
    118 H118       33.2694   35.8993    3.5704 H         1 UNK         0.0813 
    119 H119       31.8204   35.9315    4.5594 H         1 UNK         0.0813 
    120 H120       31.1535   33.4439    1.3099 H         1 UNK         0.3038 
    121 H121       33.6228   32.9268   -0.1926 H         1 UNK         0.0769 
    122 H122       31.7036   34.1309   -1.2468 H         1 UNK         0.0811 
    123 H123       30.6669   32.7250   -0.9952 H         1 UNK         0.0811 
    124 H124       32.0398   32.6284   -2.0881 H         1 UNK         0.0811 
    125 H125       31.8501   31.0788    1.9863 H         1 UNK         0.3204 
    126 H126       32.3896   28.4809    0.6256 H         1 UNK         0.0748 
    127 H127       30.3900   27.6454    1.8364 H         1 UNK         0.0771 
    128 H128       30.0944   29.2464    2.5144 H         1 UNK         0.0771 
    129 H129       29.9384   28.9809    0.7938 H         1 UNK         0.0771 
    130 H130       31.3510   27.8771    3.6982 H         1 UNK         0.2980 
    131 H131       34.1121   27.6950    4.7804 H         1 UNK         0.0545 
    132 H132       31.8786   30.0678    5.0629 H         1 UNK         0.3459 
    133 H133       32.0018   30.3187    6.7867 H         1 UNK         0.3459 
    134 H134       31.6312   25.9870    5.3113 H         1 UNK         0.0616 
    135 H135       33.1140   25.8629    6.2299 H         1 UNK         0.0616 
    136 H136       33.8965   22.7008    4.4926 H         1 UNK         0.0634 
    137 H137       33.2253   23.4804    5.8992 H         1 UNK         0.0634 
@<TRIPOS>BOND
     1    1    2 1    
     2    1   72 1    
     3    1   73 1    
     4    1   74 1    
     5    2    3 2    
     6    2    4 am   BACKBONE|DICT|INTERRES
     7    4    5 1    
     8    4   75 1    
     9    5    6 1    
    10    5   35 1    
    11    5   76 1    
    12    6    7 1    
    13    6   77 1    
    14    6   78 1    
    15    7    8 1    
    16    8    9 1    
    17    8   79 1    
    18    8   80 1    
    19    9   10 ar   
    20    9   14 ar   
    21   10   11 ar   
    22   10   81 1    
    23   11   12 ar   
    24   11   71 1    
    25   12   13 ar   
    26   12   82 1    
    27   13   14 ar   
    28   13   15 1    
    29   14   83 1    
    30   15   16 1    
    31   15   84 1    
    32   15   85 1    
    33   16   17 1    
    34   17   18 1    
    35   17   86 1    
    36   17   87 1    
    37   18   19 1    
    38   18   37 1    
    39   18   88 1    
    40   19   20 am   BACKBONE|DICT|INTERRES
    41   19   89 1    
    42   20   21 2    
    43   20   22 1    
    44   22   23 1    
    45   22   24 1    
    46   22   90 1    
    47   23   91 1    
    48   23   92 1    
    49   23   93 1    
    50   24   25 am   BACKBONE|DICT|INTERRES
    51   24   94 1    
    52   25   26 2    
    53   25   27 1    
    54   27   28 1    
    55   27   29 1    
    56   27   95 1    
    57   28   96 1    
    58   28   97 1    
    59   28   98 1    
    60   29   30 am   BACKBONE|DICT|INTERRES
    61   29   99 1    
    62   30   31 2    
    63   30   32 1    
    64   32   33 1    
    65   32   34 1    
    66   32  100 1    
    67   33  101 1    
    68   33  102 1    
    69   33  103 1    
    70   34   35 am   BACKBONE|DICT|INTERRES
    71   34  104 1    
    72   35   36 2    
    73   37   38 2    
    74   37   39 am   BACKBONE|DICT|INTERRES
    75   39   40 1    
    76   39  105 1    
    77   40   41 1    
    78   40   42 1    
    79   40  106 1    
    80   41  107 1    
    81   41  108 1    
    82   41  109 1    
    83   42   43 2    
    84   42   44 am   BACKBONE|DICT|INTERRES
    85   44   45 1    
    86   44  110 1    
    87   45   46 1    
    88   45   47 1    
    89   45  111 1    
    90   46  112 1    
    91   46  113 1    
    92   46  114 1    
    93   47   48 2    
    94   47   49 am   BACKBONE|DICT|INTERRES
    95   49   50 1    
    96   49  115 1    
    97   50   51 1    
    98   50   52 1    
    99   50  116 1    
   100   51  117 1    
   101   51  118 1    
   102   51  119 1    
   103   52   53 2    
   104   52   54 am   BACKBONE|DICT|INTERRES
   105   54   55 1    
   106   54  120 1    
   107   55   56 1    
   108   55   57 1    
   109   55  121 1    
   110   56  122 1    
   111   56  123 1    
   112   56  124 1    
   113   57   58 2    
   114   57   59 am   BACKBONE|DICT|INTERRES
   115   59   60 1    
   116   59  125 1    
   117   60   61 1    
   118   60   62 1    
   119   60  126 1    
   120   61  127 1    
   121   61  128 1    
   122   61  129 1    
   123   62   63 2    
   124   62   64 am   BACKBONE|DICT|INTERRES
   125   64   65 1    
   126   64  130 1    
   127   65   66 1    
   128   65   69 1    
   129   65  131 1    
   130   66   67 am   BACKBONE|DICT|INTERRES
   131   66   68 2    
   132   67  132 1    
   133   67  133 1    
   134   69   70 1    
   135   69  134 1    
   136   69  135 1    
   137   70   71 1    
   138   71  136 1    
   139   71  137 1    
@<TRIPOS>SUBSTRUCTURE
     1 UNK         1 GROUP             0       ****    0 ROOT    
