@<TRIPOS>MOLECULE
3R136
137   139    1
SMALL
USER_CHARGES


@<TRIPOS>ATOM
      1 CA         28.1145   19.8757    4.6237 C.3       0 UNK        -0.1979 
      2 C          28.2930   20.6533    3.3279 C.2       0 UNK         0.4864 
      3 O          28.3786   20.0476    2.2581 O.2       0 UNK        -0.5359 
      4 N          28.3593   21.9878    3.4175 N.am      1 UNK        -0.4318 
      5 CA         28.4854   22.9014    2.2759 C.3       1 UNK         0.0824 
      6 C6         28.9954   24.3016    2.7077 C.3       12 UNK        -0.0944 
      7 S7         30.5369   24.2404    3.6940 S.3       12 UNK        -0.2672 
      8 C8         31.7916   23.7315    2.4735 C.3       12 UNK         0.0333 
      9 C9         32.0651   24.8128    1.4393 C.ar      12 UNK        -0.0807 
     10 C10        32.9699   25.8399    1.7177 C.ar      12 UNK        -0.0894 
     11 C11        33.2281   26.8384    0.7739 C.ar      12 UNK        -0.0804 
     12 C12        32.5686   26.8069   -0.4601 C.ar      12 UNK        -0.0824 
     13 C13        31.6678   25.7765   -0.7532 C.ar      12 UNK        -0.0762 
     14 C14        31.4289   24.7790    0.1964 C.ar      12 UNK        -0.0782 
     15 C15        30.9574   25.7149   -2.0964 C.3       12 UNK         0.0230 
     16 S16        29.2123   26.2088   -1.9503 S.3       12 UNK        -0.2608 
     17 C17        29.3268   28.0102   -2.2368 C.3       12 UNK        -0.0989 
     18 CA         28.0845   28.8210   -1.7779 C.3       5 UNK         0.0716 
     19 N          26.8366   28.2220   -2.2451 N.am      5 UNK        -0.4135 
     20 C          25.7831   28.8736   -2.7489 C.2       4 UNK         0.5031 
     21 O          25.7937   30.0587   -3.0847 O.2       4 UNK        -0.5229 
     22 CA         24.4799   28.0591   -2.8594 C.3       4 UNK         0.0329 
     23 CB         24.4313   27.2854   -4.1866 C.3       4 UNK        -0.2001 
     24 N          24.3306   27.1214   -1.7417 N.am      4 UNK        -0.4303 
     25 C          24.1245   27.4765   -0.4659 C.2       3 UNK         0.5044 
     26 O          23.8381   28.6245   -0.1227 O.2       3 UNK        -0.5152 
     27 CA         24.3052   26.4001    0.6236 C.3       3 UNK         0.0319 
     28 CB         22.9437   25.8806    1.1274 C.3       3 UNK        -0.2001 
     29 N          25.2144   25.2927    0.2761 N.am      3 UNK        -0.4354 
     30 C          25.0309   24.3090   -0.6170 C.2       2 UNK         0.4964 
     31 O          24.0480   24.2443   -1.3554 O.2       2 UNK        -0.5047 
     32 CA         26.1274   23.2346   -0.7617 C.3       2 UNK         0.0288 
     33 CB         26.7006   23.2363   -2.1901 C.3       2 UNK        -0.2113 
     34 N          27.2387   23.3144    0.1964 N.am      2 UNK        -0.4145 
     35 C          27.1544   22.9894    1.4950 C.2       1 UNK         0.5006 
     36 O          26.0861   22.7580    2.0681 O.2       1 UNK        -0.5103 
     37 C          28.0182   28.9654   -0.2440 C.2       5 UNK         0.5055 
     38 O          27.2156   28.2917    0.4099 O.2       5 UNK        -0.5220 
     39 N          28.8615   29.8521    0.2996 N.am      6 UNK        -0.4450 
     40 CA         28.9955   30.1113    1.7356 C.3       6 UNK         0.0367 
     41 CB         29.9403   31.3102    1.9311 C.3       6 UNK        -0.1929 
     42 C          29.5094   28.8898    2.5212 C.2       6 UNK         0.5070 
     43 O          30.1172   27.9899    1.9418 O.2       6 UNK        -0.5237 
     44 N          29.2763   28.8982    3.8394 N.am      7 UNK        -0.4739 
     45 CA         29.8433   27.9208    4.7700 C.3       7 UNK         0.0276 
     46 CB         29.1203   28.0341    6.1215 C.3       7 UNK        -0.1927 
     47 C          31.3514   28.1525    4.9520 C.2       7 UNK         0.5013 
     48 O          31.7911   29.3032    4.9173 O.2       7 UNK        -0.5193 
     49 N          32.1069   27.0770    5.2129 N.am      8 UNK        -0.4253 
     50 CA         33.5713   27.0764    5.3532 C.3       8 UNK         0.0242 
     51 CB         34.0466   25.6487    5.6682 C.3       8 UNK        -0.2000 
     52 C          34.1431   28.0694    6.3842 C.2       8 UNK         0.4948 
     53 O          35.2634   28.5446    6.2007 O.2       8 UNK        -0.5275 
     54 N          33.3639   28.3841    7.4281 N.am      9 UNK        -0.4246 
     55 CA         33.6883   29.4011    8.4310 C.3       9 UNK         0.0261 
     56 CB         32.8028   29.1819    9.6689 C.3       9 UNK        -0.1959 
     57 C          33.5397   30.8477    7.9173 C.2       9 UNK         0.5033 
     58 O          34.1649   31.7443    8.4856 O.2       9 UNK        -0.5390 
     59 N          32.7132   31.0599    6.8836 N.am      10 UNK        -0.4215 
     60 CA         32.4492   32.3629    6.2706 C.3       10 UNK         0.0240 
     61 CB         30.9513   32.4700    5.9391 C.3       10 UNK        -0.1982 
     62 C          33.3037   32.6012    5.0141 C.2       10 UNK         0.4970 
     63 O          33.5506   33.7623    4.6847 O.2       10 UNK        -0.4916 
     64 N          33.7402   31.5261    4.3402 N.am      11 UNK        -0.4279 
     65 CA         34.6692   31.5577    3.1975 C.3       11 UNK         0.1003 
     66 C          36.0170   32.2626    3.5238 C.2       11 UNK         0.5709 
     67 N          36.5763   33.0012    2.5746 N.am      11 UNK        -0.7358 
     68 O          36.5791   32.1101    4.6070 O.2       11 UNK        -0.4999 
     69 C69        34.9455   30.1363    2.6426 C.3       12 UNK        -0.0954 
     70 S70        33.4627   29.3228    1.9709 S.3       12 UNK        -0.2268 
     71 C71        34.2356   27.9330    1.0908 C.3       12 UNK         0.0203 
     72 H72        28.0713   20.5339    5.4913 H         1 UNK         0.0888 
     73 H73        28.9451   19.1844    4.7640 H         1 UNK         0.0888 
     74 H74        27.1912   19.2981    4.5900 H         1 UNK         0.0888 
     75 H75        28.2749   22.4319    4.3202 H         1 UNK         0.3017 
     76 H76        29.2208   22.4689    1.5952 H         1 UNK         0.0873 
     77 H77        28.2409   24.8058    3.3146 H         1 UNK         0.0745 
     78 H78        29.1566   24.9480    1.8432 H         1 UNK         0.0745 
     79 H79        32.7154   23.4989    3.0050 H         1 UNK         0.0705 
     80 H80        31.4878   22.8021    1.9911 H         1 UNK         0.0705 
     81 H81        33.4727   25.8632    2.6725 H         1 UNK         0.1334 
     82 H82        32.7611   27.5802   -1.1909 H         1 UNK         0.1417 
     83 H83        30.7374   23.9809   -0.0325 H         1 UNK         0.1562 
     84 H84        31.0004   24.6937   -2.4779 H         1 UNK         0.0748 
     85 H85        31.4621   26.3357   -2.8383 H         1 UNK         0.0748 
     86 H86        29.4718   28.1604   -3.3077 H         1 UNK         0.0940 
     87 H87        30.2335   28.3920   -1.7632 H         1 UNK         0.0940 
     88 H88        28.1743   29.8281   -2.1908 H         1 UNK         0.0703 
     89 H89        26.7053   27.2646   -1.9552 H         1 UNK         0.3081 
     90 H90        23.6417   28.7587   -2.8352 H         1 UNK         0.0719 
     91 H91        25.2390   26.5561   -4.2616 H         1 UNK         0.0809 
     92 H92        23.4870   26.7525   -4.2999 H         1 UNK         0.0809 
     93 H93        24.5237   27.9637   -5.0360 H         1 UNK         0.0809 
     94 H94        24.4512   26.1334   -1.9343 H         1 UNK         0.2990 
     95 H95        24.7874   26.9064    1.4616 H         1 UNK         0.0690 
     96 H96        23.0687   25.1650    1.9402 H         1 UNK         0.0788 
     97 H97        22.3719   25.3951    0.3363 H         1 UNK         0.0788 
     98 H98        22.3331   26.7004    1.5082 H         1 UNK         0.0788 
     99 H99        26.0828   25.2834    0.7919 H         1 UNK         0.2993 
    100 H100       25.6317   22.2738   -0.6054 H         1 UNK         0.0949 
    101 H101       25.9157   23.0643   -2.9281 H         1 UNK         0.0767 
    102 H102       27.1707   24.1875   -2.4368 H         1 UNK         0.0767 
    103 H103       27.4418   22.4482   -2.3246 H         1 UNK         0.0767 
    104 H104       28.1432   23.5310   -0.1963 H         1 UNK         0.3013 
    105 H105       29.5091   30.3388   -0.3020 H         1 UNK         0.3121 
    106 H106       28.0075   30.3731    2.1205 H         1 UNK         0.0774 
    107 H107       29.5721   32.1982    1.4172 H         1 UNK         0.0815 
    108 H108       30.9432   31.0957    1.5597 H         1 UNK         0.0815 
    109 H109       30.0376   31.5673    2.9855 H         1 UNK         0.0815 
    110 H110       28.8029   29.6901    4.2481 H         1 UNK         0.2987 
    111 H111       29.6804   26.9228    4.3610 H         1 UNK         0.0949 
    112 H112       29.2605   29.0168    6.5743 H         1 UNK         0.0806 
    113 H113       28.0489   27.8637    6.0134 H         1 UNK         0.0806 
    114 H114       29.4937   27.2924    6.8288 H         1 UNK         0.0806 
    115 H115       31.6575   26.1715    5.2263 H         1 UNK         0.3010 
    116 H116       33.9807   27.3694    4.3848 H         1 UNK         0.0829 
    117 H117       33.7392   24.9426    4.8972 H         1 UNK         0.0813 
    118 H118       35.1350   25.6040    5.7296 H         1 UNK         0.0813 
    119 H119       33.6519   25.2947    6.6214 H         1 UNK         0.0813 
    120 H120       32.4635   27.9342    7.5051 H         1 UNK         0.3038 
    121 H121       34.7302   29.2667    8.7301 H         1 UNK         0.0769 
    122 H122       31.7435   29.2937    9.4338 H         1 UNK         0.0811 
    123 H123       33.0403   29.9045   10.4511 H         1 UNK         0.0811 
    124 H124       32.9512   28.1887   10.0932 H         1 UNK         0.0811 
    125 H125       32.2907   30.2627    6.4128 H         1 UNK         0.3204 
    126 H126       32.6888   33.1584    6.9794 H         1 UNK         0.0748 
    127 H127       30.3430   32.4049    6.8413 H         1 UNK         0.0771 
    128 H128       30.7218   33.4236    5.4614 H         1 UNK         0.0771 
    129 H129       30.6287   31.6786    5.2634 H         1 UNK         0.0771 
    130 H130       33.4177   30.6098    4.6245 H         1 UNK         0.2980 
    131 H131       34.1752   32.1367    2.4147 H         1 UNK         0.0545 
    132 H132       37.4578   33.4529    2.7617 H         1 UNK         0.3459 
    133 H133       36.1320   33.1228    1.6778 H         1 UNK         0.3459 
    134 H134       35.6860   30.1796    1.8412 H         1 UNK         0.0616 
    135 H135       35.3693   29.4978    3.4202 H         1 UNK         0.0616 
    136 H136       35.0404   27.5203    1.7013 H         1 UNK         0.0634 
    137 H137       34.7006   28.3014    0.1752 H         1 UNK         0.0634 
@<TRIPOS>BOND
     1    1    2 1    
     2    1   72 1    
     3    1   73 1    
     4    1   74 1    
     5    2    3 2    
     6    2    4 am   BACKBONE|DICT|INTERRES
     7    4    5 1    
     8    4   75 1    
     9    5    6 1    
    10    5   35 1    
    11    5   76 1    
    12    6    7 1    
    13    6   77 1    
    14    6   78 1    
    15    7    8 1    
    16    8    9 1    
    17    8   79 1    
    18    8   80 1    
    19    9   10 ar   
    20    9   14 ar   
    21   10   11 ar   
    22   10   81 1    
    23   11   12 ar   
    24   11   71 1    
    25   12   13 ar   
    26   12   82 1    
    27   13   14 ar   
    28   13   15 1    
    29   14   83 1    
    30   15   16 1    
    31   15   84 1    
    32   15   85 1    
    33   16   17 1    
    34   17   18 1    
    35   17   86 1    
    36   17   87 1    
    37   18   19 1    
    38   18   37 1    
    39   18   88 1    
    40   19   20 am   BACKBONE|DICT|INTERRES
    41   19   89 1    
    42   20   21 2    
    43   20   22 1    
    44   22   23 1    
    45   22   24 1    
    46   22   90 1    
    47   23   91 1    
    48   23   92 1    
    49   23   93 1    
    50   24   25 am   BACKBONE|DICT|INTERRES
    51   24   94 1    
    52   25   26 2    
    53   25   27 1    
    54   27   28 1    
    55   27   29 1    
    56   27   95 1    
    57   28   96 1    
    58   28   97 1    
    59   28   98 1    
    60   29   30 am   BACKBONE|DICT|INTERRES
    61   29   99 1    
    62   30   31 2    
    63   30   32 1    
    64   32   33 1    
    65   32   34 1    
    66   32  100 1    
    67   33  101 1    
    68   33  102 1    
    69   33  103 1    
    70   34   35 am   BACKBONE|DICT|INTERRES
    71   34  104 1    
    72   35   36 2    
    73   37   38 2    
    74   37   39 am   BACKBONE|DICT|INTERRES
    75   39   40 1    
    76   39  105 1    
    77   40   41 1    
    78   40   42 1    
    79   40  106 1    
    80   41  107 1    
    81   41  108 1    
    82   41  109 1    
    83   42   43 2    
    84   42   44 am   BACKBONE|DICT|INTERRES
    85   44   45 1    
    86   44  110 1    
    87   45   46 1    
    88   45   47 1    
    89   45  111 1    
    90   46  112 1    
    91   46  113 1    
    92   46  114 1    
    93   47   48 2    
    94   47   49 am   BACKBONE|DICT|INTERRES
    95   49   50 1    
    96   49  115 1    
    97   50   51 1    
    98   50   52 1    
    99   50  116 1    
   100   51  117 1    
   101   51  118 1    
   102   51  119 1    
   103   52   53 2    
   104   52   54 am   BACKBONE|DICT|INTERRES
   105   54   55 1    
   106   54  120 1    
   107   55   56 1    
   108   55   57 1    
   109   55  121 1    
   110   56  122 1    
   111   56  123 1    
   112   56  124 1    
   113   57   58 2    
   114   57   59 am   BACKBONE|DICT|INTERRES
   115   59   60 1    
   116   59  125 1    
   117   60   61 1    
   118   60   62 1    
   119   60  126 1    
   120   61  127 1    
   121   61  128 1    
   122   61  129 1    
   123   62   63 2    
   124   62   64 am   BACKBONE|DICT|INTERRES
   125   64   65 1    
   126   64  130 1    
   127   65   66 1    
   128   65   69 1    
   129   65  131 1    
   130   66   67 am   BACKBONE|DICT|INTERRES
   131   66   68 2    
   132   67  132 1    
   133   67  133 1    
   134   69   70 1    
   135   69  134 1    
   136   69  135 1    
   137   70   71 1    
   138   71  136 1    
   139   71  137 1    
@<TRIPOS>SUBSTRUCTURE
     1 UNK         1 GROUP             0       ****    0 ROOT    
