@<TRIPOS>MOLECULE
3R136
137   139    1
SMALL
USER_CHARGES


@<TRIPOS>ATOM
      1 CA         30.8922   25.3516    0.7589 C.3       0 UNK        -0.1979 
      2 C          31.3205   24.8306   -0.6072 C.2       0 UNK         0.4864 
      3 O          32.0384   25.5301   -1.3196 O.2       0 UNK        -0.5359 
      4 N          30.9139   23.6271   -1.0272 N.am      1 UNK        -0.4318 
      5 CA         30.0510   22.6768   -0.3194 C.3       1 UNK         0.0824 
      6 C6         30.5004   21.2260   -0.6490 C.3       12 UNK        -0.0944 
      7 S7         30.0499   19.9942    0.6207 S.3       12 UNK        -0.2672 
      8 C8         31.5119   20.0119    1.7199 C.3       12 UNK         0.0333 
      9 C9         31.6109   21.2893    2.5476 C.ar      12 UNK        -0.0807 
     10 C10        32.8103   22.0076    2.6141 C.ar      12 UNK        -0.0894 
     11 C11        32.8959   23.1895    3.3617 C.ar      12 UNK        -0.0804 
     12 C12        31.7546   23.6645    4.0177 C.ar      12 UNK        -0.0824 
     13 C13        30.5466   22.9671    3.9422 C.ar      12 UNK        -0.0762 
     14 C14        30.4958   21.7581    3.2467 C.ar      12 UNK        -0.0782 
     15 C15        29.2855   23.5343    4.5747 C.3       12 UNK         0.0230 
     16 S16        27.9883   23.7642    3.3144 S.3       12 UNK        -0.2608 
     17 C17        27.1893   25.3000    3.8729 C.3       12 UNK        -0.0989 
     18 CA         27.7921   26.5283    3.1524 C.3       5 UNK         0.0716 
     19 N          27.4361   26.5900    1.7284 N.am      5 UNK        -0.4135 
     20 C          27.9855   27.4617    0.8678 C.2       4 UNK         0.5031 
     21 O          28.8894   28.2317    1.1952 O.2       4 UNK        -0.5229 
     22 CA         27.4963   27.4884   -0.5940 C.3       4 UNK         0.0329 
     23 CB         28.6662   27.3700   -1.5855 C.3       4 UNK        -0.2001 
     24 N          26.5124   26.4522   -0.9066 N.am      4 UNK        -0.4303 
     25 C          25.1870   26.5939   -0.7705 C.2       3 UNK         0.5044 
     26 O          24.6473   27.6279   -0.3760 O.2       3 UNK        -0.5152 
     27 CA         24.3043   25.3816   -1.1273 C.3       3 UNK         0.0319 
     28 CB         23.6770   25.5666   -2.5186 C.3       3 UNK        -0.2001 
     29 N          24.9952   24.0882   -1.0840 N.am      3 UNK        -0.4354 
     30 C          25.5565   23.5480    0.0065 C.2       2 UNK         0.4964 
     31 O          25.5702   24.1071    1.1025 O.2       2 UNK        -0.5047 
     32 CA         26.2139   22.1615   -0.1438 C.3       2 UNK         0.0288 
     33 CB         25.8610   21.4372   -1.4639 C.3       2 UNK        -0.2113 
     34 N          27.6706   22.1988    0.0338 N.am      2 UNK        -0.4145 
     35 C          28.5601   22.9366   -0.6464 C.2       1 UNK         0.5006 
     36 O          28.2455   23.7740   -1.4983 O.2       1 UNK        -0.5103 
     37 C          27.4190   27.8310    3.8904 C.2       5 UNK         0.5055 
     38 O          26.3381   28.3782    3.6595 O.2       5 UNK        -0.5220 
     39 N          28.3229   28.2698    4.7784 N.am      6 UNK        -0.4450 
     40 CA         28.2671   29.4904    5.5901 C.3       6 UNK         0.0367 
     41 CB         27.0917   29.4431    6.5902 C.3       6 UNK        -0.1929 
     42 C          28.2892   30.7723    4.7343 C.2       6 UNK         0.5070 
     43 O          27.4806   31.6766    4.9497 O.2       6 UNK        -0.5237 
     44 N          29.2307   30.8351    3.7812 N.am      7 UNK        -0.4739 
     45 CA         29.4306   31.9805    2.8844 C.3       7 UNK         0.0276 
     46 CB         30.2436   31.5272    1.6602 C.3       7 UNK        -0.1927 
     47 C          30.1040   33.1955    3.5526 C.2       7 UNK         0.5013 
     48 O          30.1224   34.2697    2.9502 O.2       7 UNK        -0.5193 
     49 N          30.6809   33.0069    4.7496 N.am      8 UNK        -0.4253 
     50 CA         31.4106   33.9669    5.5955 C.3       8 UNK         0.0242 
     51 CB         30.5486   35.1920    5.9586 C.3       8 UNK        -0.2000 
     52 C          32.7778   34.3868    5.0270 C.2       8 UNK         0.4948 
     53 O          33.7657   34.3715    5.7616 O.2       8 UNK        -0.5275 
     54 N          32.8278   34.7018    3.7267 N.am      9 UNK        -0.4246 
     55 CA         34.0561   34.9068    2.9500 C.3       9 UNK         0.0261 
     56 CB         33.7040   35.6570    1.6550 C.3       9 UNK        -0.1959 
     57 C          34.7876   33.5868    2.6271 C.2       9 UNK         0.5033 
     58 O          35.9506   33.6199    2.2224 O.2       9 UNK        -0.5390 
     59 N          34.0949   32.4591    2.8095 N.am      10 UNK        -0.4215 
     60 CA         34.5587   31.0866    2.6607 C.3       10 UNK         0.0240 
     61 CB         34.4655   30.6629    1.1815 C.3       10 UNK        -0.1982 
     62 C          33.6819   30.2107    3.5680 C.2       10 UNK         0.4970 
     63 O          32.7621   30.7277    4.2115 O.2       10 UNK        -0.4916 
     64 N          33.9529   28.9004    3.5878 N.am      11 UNK        -0.4279 
     65 CA         33.1681   27.9070    4.3411 C.3       11 UNK         0.1003 
     66 C          31.6932   27.7222    3.8724 C.2       11 UNK         0.5709 
     67 N          31.2995   28.2509    2.7185 N.am      11 UNK        -0.7358 
     68 O          30.8937   27.1211    4.5856 O.2       11 UNK        -0.4999 
     69 C69        33.9281   26.5611    4.4761 C.3       12 UNK        -0.0954 
     70 S70        34.1573   25.6591    2.9006 S.3       12 UNK        -0.2268 
     71 C71        34.2283   23.9277    3.4744 C.3       12 UNK         0.0203 
     72 H72        31.5290   24.9387    1.5375 H         1 UNK         0.0888 
     73 H73        30.9901   26.4348    0.7833 H         1 UNK         0.0888 
     74 H74        29.8559   25.1109    0.9887 H         1 UNK         0.0888 
     75 H75        31.1696   23.3456   -1.9624 H         1 UNK         0.3017 
     76 H76        30.1739   22.8343    0.7510 H         1 UNK         0.0873 
     77 H77        30.0989   20.9011   -1.6111 H         1 UNK         0.0745 
     78 H78        31.5855   21.1849   -0.7618 H         1 UNK         0.0745 
     79 H79        32.4125   19.8591    1.1231 H         1 UNK         0.0705 
     80 H80        31.4462   19.1627    2.4012 H         1 UNK         0.0705 
     81 H81        33.6822   21.6400    2.0901 H         1 UNK         0.1334 
     82 H82        31.7955   24.5884    4.5737 H         1 UNK         0.1417 
     83 H83        29.5642   21.2104    3.2025 H         1 UNK         0.1562 
     84 H84        29.5039   24.4871    5.0601 H         1 UNK         0.0748 
     85 H85        28.9244   22.8597    5.3519 H         1 UNK         0.0748 
     86 H86        27.2965   25.3754    4.9571 H         1 UNK         0.0940 
     87 H87        26.1168   25.2301    3.6815 H         1 UNK         0.0940 
     88 H88        28.8775   26.4282    3.1879 H         1 UNK         0.0703 
     89 H89        26.7083   25.9588    1.4156 H         1 UNK         0.3081 
     90 H90        27.0441   28.4711   -0.7433 H         1 UNK         0.0719 
     91 H91        29.1229   26.3826   -1.5511 H         1 UNK         0.0809 
     92 H92        28.3326   27.5436   -2.6085 H         1 UNK         0.0809 
     93 H93        29.4475   28.1016   -1.3745 H         1 UNK         0.0809 
     94 H94        26.8771   25.5590   -1.2183 H         1 UNK         0.2990 
     95 H95        23.4981   25.3457   -0.3916 H         1 UNK         0.0690 
     96 H96        22.9718   24.7671   -2.7469 H         1 UNK         0.0788 
     97 H97        24.4345   25.5829   -3.3034 H         1 UNK         0.0788 
     98 H98        23.1266   26.5068   -2.5776 H         1 UNK         0.0788 
     99 H99        25.0487   23.5718   -1.9502 H         1 UNK         0.2993 
    100 H100       25.8204   21.5588    0.6763 H         1 UNK         0.0949 
    101 H101       26.2633   21.9491   -2.3390 H         1 UNK         0.0767 
    102 H102       26.2623   20.4235   -1.4680 H         1 UNK         0.0767 
    103 H103       24.7811   21.3495   -1.5922 H         1 UNK         0.0767 
    104 H104       28.0349   21.5574    0.7259 H         1 UNK         0.3013 
    105 H105       29.1977   27.7504    4.8481 H         1 UNK         0.3121 
    106 H106       29.1881   29.5045    6.1751 H         1 UNK         0.0774 
    107 H107       26.1255   29.4798    6.0863 H         1 UNK         0.0815 
    108 H108       27.1302   30.2906    7.2757 H         1 UNK         0.0815 
    109 H109       27.1210   28.5368    7.1949 H         1 UNK         0.0815 
    110 H110       29.8543   30.0492    3.6545 H         1 UNK         0.2987 
    111 H111       28.4516   32.3149    2.5339 H         1 UNK         0.0949 
    112 H112       30.4013   32.3521    0.9640 H         1 UNK         0.0806 
    113 H113       31.2245   31.1488    1.9437 H         1 UNK         0.0806 
    114 H114       29.7266   30.7413    1.1105 H         1 UNK         0.0806 
    115 H115       30.6743   32.0573    5.0969 H         1 UNK         0.3010 
    116 H116       31.6156   33.4316    6.5242 H         1 UNK         0.0829 
    117 H117       29.6034   34.8907    6.4103 H         1 UNK         0.0813 
    118 H118       31.0643   35.8280    6.6792 H         1 UNK         0.0813 
    119 H119       30.3225   35.8098    5.0892 H         1 UNK         0.0813 
    120 H120       31.9464   34.7025    3.2178 H         1 UNK         0.3038 
    121 H121       34.7387   35.5269    3.5348 H         1 UNK         0.0769 
    122 H122       34.5978   35.8528    1.0610 H         1 UNK         0.0811 
    123 H123       33.2409   36.6206    1.8683 H         1 UNK         0.0811 
    124 H124       33.0162   35.0843    1.0314 H         1 UNK         0.0811 
    125 H125       33.1775   32.5224    3.2331 H         1 UNK         0.3204 
    126 H126       35.5914   31.0130    3.0075 H         1 UNK         0.0748 
    127 H127       35.0637   31.3166    0.5462 H         1 UNK         0.0771 
    128 H128       34.8366   29.6486    1.0312 H         1 UNK         0.0771 
    129 H129       33.4388   30.6956    0.8150 H         1 UNK         0.0771 
    130 H130       34.7039   28.5341    3.0217 H         1 UNK         0.2980 
    131 H131       33.0832   28.3065    5.3536 H         1 UNK         0.0545 
    132 H132       31.9768   28.7157    2.1386 H         1 UNK         0.3459 
    133 H133       30.3554   28.1324    2.3644 H         1 UNK         0.3459 
    134 H134       33.4236   25.9225    5.2011 H         1 UNK         0.0616 
    135 H135       34.9170   26.7423    4.8997 H         1 UNK         0.0616 
    136 H136       34.5764   23.8902    4.5074 H         1 UNK         0.0634 
    137 H137       34.9907   23.4172    2.8842 H         1 UNK         0.0634 
@<TRIPOS>BOND
     1    1    2 1    
     2    1   72 1    
     3    1   73 1    
     4    1   74 1    
     5    2    3 2    
     6    2    4 am   BACKBONE|DICT|INTERRES
     7    4    5 1    
     8    4   75 1    
     9    5    6 1    
    10    5   35 1    
    11    5   76 1    
    12    6    7 1    
    13    6   77 1    
    14    6   78 1    
    15    7    8 1    
    16    8    9 1    
    17    8   79 1    
    18    8   80 1    
    19    9   10 ar   
    20    9   14 ar   
    21   10   11 ar   
    22   10   81 1    
    23   11   12 ar   
    24   11   71 1    
    25   12   13 ar   
    26   12   82 1    
    27   13   14 ar   
    28   13   15 1    
    29   14   83 1    
    30   15   16 1    
    31   15   84 1    
    32   15   85 1    
    33   16   17 1    
    34   17   18 1    
    35   17   86 1    
    36   17   87 1    
    37   18   19 1    
    38   18   37 1    
    39   18   88 1    
    40   19   20 am   BACKBONE|DICT|INTERRES
    41   19   89 1    
    42   20   21 2    
    43   20   22 1    
    44   22   23 1    
    45   22   24 1    
    46   22   90 1    
    47   23   91 1    
    48   23   92 1    
    49   23   93 1    
    50   24   25 am   BACKBONE|DICT|INTERRES
    51   24   94 1    
    52   25   26 2    
    53   25   27 1    
    54   27   28 1    
    55   27   29 1    
    56   27   95 1    
    57   28   96 1    
    58   28   97 1    
    59   28   98 1    
    60   29   30 am   BACKBONE|DICT|INTERRES
    61   29   99 1    
    62   30   31 2    
    63   30   32 1    
    64   32   33 1    
    65   32   34 1    
    66   32  100 1    
    67   33  101 1    
    68   33  102 1    
    69   33  103 1    
    70   34   35 am   BACKBONE|DICT|INTERRES
    71   34  104 1    
    72   35   36 2    
    73   37   38 2    
    74   37   39 am   BACKBONE|DICT|INTERRES
    75   39   40 1    
    76   39  105 1    
    77   40   41 1    
    78   40   42 1    
    79   40  106 1    
    80   41  107 1    
    81   41  108 1    
    82   41  109 1    
    83   42   43 2    
    84   42   44 am   BACKBONE|DICT|INTERRES
    85   44   45 1    
    86   44  110 1    
    87   45   46 1    
    88   45   47 1    
    89   45  111 1    
    90   46  112 1    
    91   46  113 1    
    92   46  114 1    
    93   47   48 2    
    94   47   49 am   BACKBONE|DICT|INTERRES
    95   49   50 1    
    96   49  115 1    
    97   50   51 1    
    98   50   52 1    
    99   50  116 1    
   100   51  117 1    
   101   51  118 1    
   102   51  119 1    
   103   52   53 2    
   104   52   54 am   BACKBONE|DICT|INTERRES
   105   54   55 1    
   106   54  120 1    
   107   55   56 1    
   108   55   57 1    
   109   55  121 1    
   110   56  122 1    
   111   56  123 1    
   112   56  124 1    
   113   57   58 2    
   114   57   59 am   BACKBONE|DICT|INTERRES
   115   59   60 1    
   116   59  125 1    
   117   60   61 1    
   118   60   62 1    
   119   60  126 1    
   120   61  127 1    
   121   61  128 1    
   122   61  129 1    
   123   62   63 2    
   124   62   64 am   BACKBONE|DICT|INTERRES
   125   64   65 1    
   126   64  130 1    
   127   65   66 1    
   128   65   69 1    
   129   65  131 1    
   130   66   67 am   BACKBONE|DICT|INTERRES
   131   66   68 2    
   132   67  132 1    
   133   67  133 1    
   134   69   70 1    
   135   69  134 1    
   136   69  135 1    
   137   70   71 1    
   138   71  136 1    
   139   71  137 1    
@<TRIPOS>SUBSTRUCTURE
     1 UNK         1 GROUP             0       ****    0 ROOT    
