@<TRIPOS>MOLECULE
3R136
137   139    1
SMALL
USER_CHARGES


@<TRIPOS>ATOM
      1 CA         27.8867   24.7856    3.1048 C.3       0 UNK        -0.1979 
      2 C          27.9552   23.4935    2.3089 C.2       0 UNK         0.4864 
      3 O          26.9289   22.8395    2.1267 O.2       0 UNK        -0.5359 
      4 N          29.1463   23.1249    1.8156 N.am      1 UNK        -0.4318 
      5 CA         29.4028   21.8714    1.0874 C.3       1 UNK         0.0824 
      6 C6         30.9084   21.6377    0.8158 C.3       12 UNK        -0.0944 
      7 S7         31.9008   21.6126    2.3458 S.3       12 UNK        -0.2672 
      8 C8         33.0026   23.0405    2.0996 C.3       12 UNK         0.0333 
      9 C9         32.2638   24.3652    2.2245 C.ar      12 UNK        -0.0807 
     10 C10        31.9301   24.8597    3.4878 C.ar      12 UNK        -0.0894 
     11 C11        31.2982   26.0993    3.6237 C.ar      12 UNK        -0.0804 
     12 C12        30.9996   26.8456    2.4782 C.ar      12 UNK        -0.0824 
     13 C13        31.2870   26.3411    1.2044 C.ar      12 UNK        -0.0762 
     14 C14        31.9301   25.1050    1.0857 C.ar      12 UNK        -0.0782 
     15 C15        30.9093   27.1236   -0.0483 C.3       12 UNK         0.0230 
     16 S16        29.1837   26.8069   -0.5518 S.3       12 UNK        -0.2608 
     17 C17        28.2721   27.8618    0.6203 C.3       12 UNK        -0.0989 
     18 CA         27.1225   28.6837   -0.0186 C.3       5 UNK         0.0716 
     19 N          26.0951   27.8368   -0.6339 N.am      5 UNK        -0.4135 
     20 C          24.9941   28.2721   -1.2665 C.2       4 UNK         0.5031 
     21 O          24.7189   29.4626   -1.4214 O.2       4 UNK        -0.5229 
     22 CA         24.0350   27.2169   -1.8517 C.3       4 UNK         0.0329 
     23 CB         24.0810   27.2437   -3.3888 C.3       4 UNK        -0.2001 
     24 N          24.2841   25.8451   -1.4041 N.am      4 UNK        -0.4303 
     25 C          24.0815   25.3599   -0.1740 C.2       3 UNK         0.5044 
     26 O          23.6820   26.0416    0.7700 O.2       3 UNK        -0.5152 
     27 CA         24.4104   23.8724    0.0519 C.3       3 UNK         0.0319 
     28 CB         23.2523   22.9670   -0.4107 C.3       3 UNK        -0.2001 
     29 N          25.7004   23.4425   -0.5132 N.am      3 UNK        -0.4354 
     30 C          26.0779   23.3545   -1.8009 C.2       2 UNK         0.4964 
     31 O          25.3264   23.6059   -2.7439 O.2       2 UNK        -0.5047 
     32 CA         27.5420   22.9818   -2.1063 C.3       2 UNK         0.0288 
     33 CB         28.1805   24.0089   -3.0590 C.3       2 UNK        -0.2113 
     34 N          28.3646   22.8867   -0.8977 N.am      2 UNK        -0.4145 
     35 C          28.6031   21.7508   -0.2269 C.2       1 UNK         0.5006 
     36 O          28.2039   20.6436   -0.5914 O.2       1 UNK        -0.5103 
     37 C          26.5512   29.6329    1.0528 C.2       5 UNK         0.5055 
     38 O          26.8154   30.8341    1.0044 O.2       5 UNK        -0.5220 
     39 N          25.8499   29.0522    2.0396 N.am      6 UNK        -0.4450 
     40 CA         25.4539   29.6235    3.3373 C.3       6 UNK         0.0367 
     41 CB         24.5620   30.8713    3.1824 C.3       6 UNK        -0.1929 
     42 C          26.6482   29.8919    4.2782 C.2       6 UNK         0.5070 
     43 O          26.5963   29.4931    5.4415 O.2       6 UNK        -0.5237 
     44 N          27.7081   30.5225    3.7627 N.am      7 UNK        -0.4739 
     45 CA         28.9825   30.7894    4.4255 C.3       7 UNK         0.0276 
     46 CB         28.8434   32.0055    5.3618 C.3       7 UNK        -0.1927 
     47 C          30.0543   31.0323    3.3515 C.2       7 UNK         0.5013 
     48 O          29.7196   31.1880    2.1749 O.2       7 UNK        -0.5193 
     49 N          31.3218   31.0815    3.7694 N.am      8 UNK        -0.4253 
     50 CA         32.4710   31.4269    2.9359 C.3       8 UNK         0.0242 
     51 CB         32.9002   30.2220    2.0772 C.3       8 UNK        -0.2000 
     52 C          33.6061   31.8830    3.8556 C.2       8 UNK         0.4948 
     53 O          33.6368   31.4782    5.0207 O.2       8 UNK        -0.5275 
     54 N          34.5384   32.6809    3.3182 N.am      9 UNK        -0.4246 
     55 CA         35.6871   33.2301    4.0516 C.3       9 UNK         0.0261 
     56 CB         36.4308   34.2392    3.1614 C.3       9 UNK        -0.1959 
     57 C          36.6584   32.1602    4.5834 C.2       9 UNK         0.5033 
     58 O          37.2220   32.3389    5.6636 O.2       9 UNK        -0.5390 
     59 N          36.8179   31.0635    3.8297 N.am      10 UNK        -0.4215 
     60 CA         37.5958   29.8882    4.2317 C.3       10 UNK         0.0240 
     61 CB         37.9877   29.0918    2.9759 C.3       10 UNK        -0.1982 
     62 C          36.8450   28.9827    5.2265 C.2       10 UNK         0.4970 
     63 O          37.4922   28.2345    5.9599 O.2       10 UNK        -0.4916 
     64 N          35.5081   29.0490    5.2199 N.am      11 UNK        -0.4279 
     65 CA         34.6200   28.2952    6.1108 C.3       11 UNK         0.1003 
     66 C          34.4801   28.9763    7.4988 C.2       11 UNK         0.5709 
     67 N          34.2719   30.2864    7.5502 N.am      11 UNK        -0.7358 
     68 O          34.5812   28.3185    8.5317 O.2       11 UNK        -0.4999 
     69 C69        33.2492   28.0617    5.4265 C.3       12 UNK        -0.0954 
     70 S70        32.2929   26.7043    6.1670 S.3       12 UNK        -0.2268 
     71 C71        30.8949   26.6094    5.0031 C.3       12 UNK         0.0203 
     72 H72        27.9623   24.5750    4.1711 H         1 UNK         0.0888 
     73 H73        28.6904   25.4622    2.8292 H         1 UNK         0.0888 
     74 H74        26.9405   25.2945    2.9228 H         1 UNK         0.0888 
     75 H75        29.9641   23.6882    2.0100 H         1 UNK         0.3017 
     76 H76        29.0545   21.0617    1.7327 H         1 UNK         0.0873 
     77 H77        31.2989   22.3899    0.1286 H         1 UNK         0.0745 
     78 H78        31.0581   20.6758    0.3209 H         1 UNK         0.0745 
     79 H79        33.4977   22.9585    1.1307 H         1 UNK         0.0705 
     80 H80        33.7962   23.0014    2.8473 H         1 UNK         0.0705 
     81 H81        32.1686   24.2801    4.3695 H         1 UNK         0.1334 
     82 H82        30.5176   27.8071    2.5800 H         1 UNK         0.1417 
     83 H83        32.1754   24.7217    0.1043 H         1 UNK         0.1562 
     84 H84        31.5658   26.8423   -0.8731 H         1 UNK         0.0748 
     85 H85        31.0669   28.1917    0.1039 H         1 UNK         0.0748 
     86 H86        28.9796   28.5491    1.0876 H         1 UNK         0.0940 
     87 H87        27.8983   27.2238    1.4214 H         1 UNK         0.0940 
     88 H88        27.5447   29.3036   -0.8124 H         1 UNK         0.0703 
     89 H89        26.2538   26.8420   -0.5936 H         1 UNK         0.3081 
     90 H90        23.0270   27.4919   -1.5343 H         1 UNK         0.0719 
     91 H91        25.0632   26.9568   -3.7669 H         1 UNK         0.0809 
     92 H92        23.3446   26.5650   -3.8198 H         1 UNK         0.0809 
     93 H93        23.8617   28.2413   -3.7722 H         1 UNK         0.0809 
     94 H94        24.6138   25.1839   -2.1044 H         1 UNK         0.2990 
     95 H95        24.5095   23.7403    1.1305 H         1 UNK         0.0690 
     96 H96        23.4573   21.9197   -0.1891 H         1 UNK         0.0788 
     97 H97        23.0638   23.0527   -1.4811 H         1 UNK         0.0788 
     98 H98        22.3261   23.2311    0.1014 H         1 UNK         0.0788 
     99 H99        26.3842   23.1935    0.1944 H         1 UNK         0.2993 
    100 H100       27.5240   22.0171   -2.6181 H         1 UNK         0.0949 
    101 H101       28.1368   25.0198   -2.6542 H         1 UNK         0.0767 
    102 H102       29.2255   23.7710   -3.2589 H         1 UNK         0.0767 
    103 H103       27.6656   24.0239   -4.0206 H         1 UNK         0.0767 
    104 H104       28.7298   23.7529   -0.5267 H         1 UNK         0.3013 
    105 H105       25.6668   28.0623    1.9479 H         1 UNK         0.3121 
    106 H106       24.8472   28.8540    3.8178 H         1 UNK         0.0774 
    107 H107       24.1721   31.1883    4.1504 H         1 UNK         0.0815 
    108 H108       25.1057   31.7184    2.7640 H         1 UNK         0.0815 
    109 H109       23.7067   30.6695    2.5377 H         1 UNK         0.0815 
    110 H110       27.6794   30.8024    2.7832 H         1 UNK         0.2987 
    111 H111       29.2729   29.9099    5.0041 H         1 UNK         0.0949 
    112 H112       28.0916   31.8319    6.1318 H         1 UNK         0.0806 
    113 H113       29.7811   32.2216    5.8751 H         1 UNK         0.0806 
    114 H114       28.5565   32.9029    4.8122 H         1 UNK         0.0806 
    115 H115       31.5439   30.9930    4.7539 H         1 UNK         0.3010 
    116 H116       32.1996   32.2621    2.2862 H         1 UNK         0.0829 
    117 H117       32.1101   29.9307    1.3863 H         1 UNK         0.0813 
    118 H118       33.7785   30.4571    1.4750 H         1 UNK         0.0813 
    119 H119       33.1437   29.3533    2.6871 H         1 UNK         0.0813 
    120 H120       34.4418   32.9623    2.3524 H         1 UNK         0.3038 
    121 H121       35.2947   33.7673    4.9180 H         1 UNK         0.0769 
    122 H122       36.8219   33.7716    2.2569 H         1 UNK         0.0811 
    123 H123       37.2768   34.6782    3.6925 H         1 UNK         0.0811 
    124 H124       35.7795   35.0603    2.8614 H         1 UNK         0.0811 
    125 H125       36.3395   31.0176    2.9417 H         1 UNK         0.3204 
    126 H126       38.5126   30.2252    4.7206 H         1 UNK         0.0748 
    127 H127       38.5950   28.2242    3.2381 H         1 UNK         0.0771 
    128 H128       37.1121   28.7255    2.4380 H         1 UNK         0.0771 
    129 H129       38.5757   29.6997    2.2879 H         1 UNK         0.0771 
    130 H130       35.0608   29.7572    4.6577 H         1 UNK         0.2980 
    131 H131       35.0743   27.3156    6.2745 H         1 UNK         0.0545 
    132 H132       34.1904   30.7431    8.4438 H         1 UNK         0.3459 
    133 H133       34.1407   30.8156    6.6920 H         1 UNK         0.3459 
    134 H134       33.4104   27.7949    4.3815 H         1 UNK         0.0616 
    135 H135       32.6433   28.9686    5.4229 H         1 UNK         0.0616 
    136 H136       30.4237   27.5911    4.9358 H         1 UNK         0.0634 
    137 H137       30.1433   25.9360    5.4169 H         1 UNK         0.0634 
@<TRIPOS>BOND
     1    1    2 1    
     2    1   72 1    
     3    1   73 1    
     4    1   74 1    
     5    2    3 2    
     6    2    4 am   BACKBONE|DICT|INTERRES
     7    4    5 1    
     8    4   75 1    
     9    5    6 1    
    10    5   35 1    
    11    5   76 1    
    12    6    7 1    
    13    6   77 1    
    14    6   78 1    
    15    7    8 1    
    16    8    9 1    
    17    8   79 1    
    18    8   80 1    
    19    9   10 ar   
    20    9   14 ar   
    21   10   11 ar   
    22   10   81 1    
    23   11   12 ar   
    24   11   71 1    
    25   12   13 ar   
    26   12   82 1    
    27   13   14 ar   
    28   13   15 1    
    29   14   83 1    
    30   15   16 1    
    31   15   84 1    
    32   15   85 1    
    33   16   17 1    
    34   17   18 1    
    35   17   86 1    
    36   17   87 1    
    37   18   19 1    
    38   18   37 1    
    39   18   88 1    
    40   19   20 am   BACKBONE|DICT|INTERRES
    41   19   89 1    
    42   20   21 2    
    43   20   22 1    
    44   22   23 1    
    45   22   24 1    
    46   22   90 1    
    47   23   91 1    
    48   23   92 1    
    49   23   93 1    
    50   24   25 am   BACKBONE|DICT|INTERRES
    51   24   94 1    
    52   25   26 2    
    53   25   27 1    
    54   27   28 1    
    55   27   29 1    
    56   27   95 1    
    57   28   96 1    
    58   28   97 1    
    59   28   98 1    
    60   29   30 am   BACKBONE|DICT|INTERRES
    61   29   99 1    
    62   30   31 2    
    63   30   32 1    
    64   32   33 1    
    65   32   34 1    
    66   32  100 1    
    67   33  101 1    
    68   33  102 1    
    69   33  103 1    
    70   34   35 am   BACKBONE|DICT|INTERRES
    71   34  104 1    
    72   35   36 2    
    73   37   38 2    
    74   37   39 am   BACKBONE|DICT|INTERRES
    75   39   40 1    
    76   39  105 1    
    77   40   41 1    
    78   40   42 1    
    79   40  106 1    
    80   41  107 1    
    81   41  108 1    
    82   41  109 1    
    83   42   43 2    
    84   42   44 am   BACKBONE|DICT|INTERRES
    85   44   45 1    
    86   44  110 1    
    87   45   46 1    
    88   45   47 1    
    89   45  111 1    
    90   46  112 1    
    91   46  113 1    
    92   46  114 1    
    93   47   48 2    
    94   47   49 am   BACKBONE|DICT|INTERRES
    95   49   50 1    
    96   49  115 1    
    97   50   51 1    
    98   50   52 1    
    99   50  116 1    
   100   51  117 1    
   101   51  118 1    
   102   51  119 1    
   103   52   53 2    
   104   52   54 am   BACKBONE|DICT|INTERRES
   105   54   55 1    
   106   54  120 1    
   107   55   56 1    
   108   55   57 1    
   109   55  121 1    
   110   56  122 1    
   111   56  123 1    
   112   56  124 1    
   113   57   58 2    
   114   57   59 am   BACKBONE|DICT|INTERRES
   115   59   60 1    
   116   59  125 1    
   117   60   61 1    
   118   60   62 1    
   119   60  126 1    
   120   61  127 1    
   121   61  128 1    
   122   61  129 1    
   123   62   63 2    
   124   62   64 am   BACKBONE|DICT|INTERRES
   125   64   65 1    
   126   64  130 1    
   127   65   66 1    
   128   65   69 1    
   129   65  131 1    
   130   66   67 am   BACKBONE|DICT|INTERRES
   131   66   68 2    
   132   67  132 1    
   133   67  133 1    
   134   69   70 1    
   135   69  134 1    
   136   69  135 1    
   137   70   71 1    
   138   71  136 1    
   139   71  137 1    
@<TRIPOS>SUBSTRUCTURE
     1 UNK         1 GROUP             0       ****    0 ROOT    
