@<TRIPOS>MOLECULE
3R136
137   139    1
SMALL
USER_CHARGES


@<TRIPOS>ATOM
      1 CA         33.0846   27.7286    0.3913 C.3       0 UNK        -0.1979 
      2 C          32.2471   26.4912    0.1007 C.2       0 UNK         0.4864 
      3 O          32.7871   25.4820   -0.3546 O.2       0 UNK        -0.5359 
      4 N          30.9384   26.5674    0.3700 N.am      1 UNK        -0.4318 
      5 CA         29.9351   25.5235    0.1464 C.3       1 UNK         0.0824 
      6 C6         30.2435   24.1936    0.8940 C.3       12 UNK        -0.0944 
      7 S7         28.7346   23.2505    1.3133 S.3       12 UNK        -0.2672 
      8 C8         29.2018   22.4634    2.8896 C.3       12 UNK         0.0333 
      9 C9         29.1058   23.4381    4.0537 C.ar      12 UNK        -0.0807 
     10 C10        30.2297   24.1554    4.4672 C.ar      12 UNK        -0.0894 
     11 C11        30.1398   25.0929    5.4988 C.ar      12 UNK        -0.0804 
     12 C12        28.9129   25.2878    6.1439 C.ar      12 UNK        -0.0824 
     13 C13        27.7858   24.5443    5.7695 C.ar      12 UNK        -0.0762 
     14 C14        27.8933   23.6193    4.7236 C.ar      12 UNK        -0.0782 
     15 C15        26.4681   24.7140    6.5233 C.3       12 UNK         0.0230 
     16 S16        25.0111   24.8590    5.4305 S.3       12 UNK        -0.2608 
     17 C17        25.2480   26.5204    4.7173 C.3       12 UNK        -0.0989 
     18 CA         26.0237   26.4917    3.3724 C.3       5 UNK         0.0716 
     19 N          25.4087   25.6430    2.3471 N.am      5 UNK        -0.4135 
     20 C          24.2632   25.8659    1.6900 C.2       4 UNK         0.5031 
     21 O          23.5340   26.8448    1.8629 O.2       4 UNK        -0.5229 
     22 CA         23.8878   24.8068    0.6365 C.3       4 UNK         0.0329 
     23 CB         22.3830   24.4859    0.6788 C.3       4 UNK        -0.2001 
     24 N          24.2600   25.1709   -0.7364 N.am      4 UNK        -0.4303 
     25 C          25.4683   25.5636   -1.1641 C.2       3 UNK         0.5044 
     26 O          26.4293   25.7986   -0.4250 O.2       3 UNK        -0.5152 
     27 CA         25.6387   25.6996   -2.6871 C.3       3 UNK         0.0319 
     28 CB         25.4079   27.1442   -3.1542 C.3       3 UNK        -0.2001 
     29 N          26.9941   25.2880   -3.0437 N.am      3 UNK        -0.4354 
     30 C          27.3678   24.0194   -3.2462 C.2       2 UNK         0.4964 
     31 O          26.5800   23.0941   -3.4460 O.2       2 UNK        -0.5047 
     32 CA         28.8709   23.7166   -3.1294 C.3       2 UNK         0.0288 
     33 CB         29.6779   24.2734   -4.3201 C.3       2 UNK        -0.2113 
     34 N          29.4076   24.1354   -1.8251 N.am      2 UNK        -0.4145 
     35 C          29.6184   25.3765   -1.3589 C.2       1 UNK         0.5006 
     36 O          29.5048   26.3919   -2.0509 O.2       1 UNK        -0.5103 
     37 C          26.3786   27.9022    2.8569 C.2       5 UNK         0.5055 
     38 O          26.3069   28.8708    3.6181 O.2       5 UNK        -0.5220 
     39 N          26.8020   28.0022    1.5876 N.am      6 UNK        -0.4450 
     40 CA         27.3962   29.2095    1.0104 C.3       6 UNK         0.0367 
     41 CB         27.3344   29.1236   -0.5220 C.3       6 UNK        -0.1929 
     42 C          28.8326   29.3841    1.5321 C.2       6 UNK         0.5070 
     43 O          29.7958   29.0848    0.8239 O.2       6 UNK        -0.5237 
     44 N          28.9526   29.7999    2.7970 N.am      7 UNK        -0.4739 
     45 CA         30.1994   29.8830    3.5565 C.3       7 UNK         0.0276 
     46 CB         29.8720   29.8492    5.0604 C.3       7 UNK        -0.1927 
     47 C          31.0755   31.0834    3.1578 C.2       7 UNK         0.5013 
     48 O          31.3885   31.9318    3.9968 O.2       7 UNK        -0.5193 
     49 N          31.4784   31.1207    1.8811 N.am      8 UNK        -0.4253 
     50 CA         32.4701   32.0443    1.3287 C.3       8 UNK         0.0242 
     51 CB         32.6406   31.7713   -0.1739 C.3       8 UNK        -0.2000 
     52 C          33.8085   31.8952    2.0690 C.2       8 UNK         0.4948 
     53 O          34.2888   30.7690    2.2228 O.2       8 UNK        -0.5275 
     54 N          34.3341   33.0191    2.5781 N.am      9 UNK        -0.4246 
     55 CA         35.5085   33.1166    3.4586 C.3       9 UNK         0.0261 
     56 CB         36.7991   32.8013    2.6719 C.3       9 UNK        -0.1959 
     57 C          35.3812   32.2716    4.7468 C.2       9 UNK         0.5033 
     58 O          36.3876   31.7619    5.2435 O.2       9 UNK        -0.5390 
     59 N          34.1416   32.0931    5.2357 N.am      10 UNK        -0.4215 
     60 CA         33.7451   31.2298    6.3568 C.3       10 UNK         0.0240 
     61 CB         34.2719   31.7956    7.6933 C.3       10 UNK        -0.1982 
     62 C          34.1161   29.7451    6.1468 C.2       10 UNK         0.4970 
     63 O          34.3705   29.0420    7.1259 O.2       10 UNK        -0.4916 
     64 N          34.1634   29.3087    4.8786 N.am      11 UNK        -0.4279 
     65 CA         34.6637   28.0011    4.4228 C.3       11 UNK         0.1003 
     66 C          36.2072   27.8220    4.5697 C.2       11 UNK         0.5709 
     67 N          36.9862   28.8640    4.8410 N.am      11 UNK        -0.7358 
     68 O          36.7218   26.7188    4.4005 O.2       11 UNK        -0.4999 
     69 C69        33.8647   26.7858    4.9818 C.3       12 UNK        -0.0954 
     70 S70        32.0924   26.8305    4.5602 S.3       12 UNK        -0.2268 
     71 C71        31.3868   25.8552    5.9288 C.3       12 UNK         0.0203 
     72 H72        34.0023   27.4505    0.9085 H         1 UNK         0.0888 
     73 H73        33.3550   28.2261   -0.5393 H         1 UNK         0.0888 
     74 H74        32.5517   28.4415    1.0202 H         1 UNK         0.0888 
     75 H75        30.5515   27.4727    0.6348 H         1 UNK         0.3017 
     76 H76        29.0260   25.9383    0.5845 H         1 UNK         0.0873 
     77 H77        30.7637   24.4298    1.8198 H         1 UNK         0.0745 
     78 H78        30.9348   23.5598    0.3357 H         1 UNK         0.0745 
     79 H79        28.5401   21.6143    3.0669 H         1 UNK         0.0705 
     80 H80        30.2092   22.0515    2.8114 H         1 UNK         0.0705 
     81 H81        31.1813   23.9965    3.9794 H         1 UNK         0.1334 
     82 H82        28.8420   26.0012    6.9538 H         1 UNK         0.1417 
     83 H83        27.0278   23.0444    4.4235 H         1 UNK         0.1562 
     84 H84        26.5046   25.5809    7.1849 H         1 UNK         0.0748 
     85 H85        26.3298   23.8451    7.1678 H         1 UNK         0.0748 
     86 H86        25.7662   27.1385    5.4531 H         1 UNK         0.0940 
     87 H87        24.2673   26.9788    4.5786 H         1 UNK         0.0940 
     88 H88        26.9947   26.0378    3.5686 H         1 UNK         0.0703 
     89 H89        25.9512   24.8332    2.0813 H         1 UNK         0.3081 
     90 H90        24.4234   23.8863    0.8784 H         1 UNK         0.0719 
     91 H91        21.7787   25.3401    0.3703 H         1 UNK         0.0809 
     92 H92        22.1356   23.6466    0.0286 H         1 UNK         0.0809 
     93 H93        22.0704   24.2142    1.6881 H         1 UNK         0.0809 
     94 H94        23.5375   25.0421   -1.4298 H         1 UNK         0.2990 
     95 H95        24.9124   25.0542   -3.1859 H         1 UNK         0.0690 
     96 H96        26.1886   27.8141   -2.7971 H         1 UNK         0.0788 
     97 H97        24.4511   27.5286   -2.7981 H         1 UNK         0.0788 
     98 H98        25.3972   27.2050   -4.2425 H         1 UNK         0.0788 
     99 H99        27.7342   25.9436   -2.8106 H         1 UNK         0.2993 
    100 H100       28.9742   22.6303   -3.1520 H         1 UNK         0.0949 
    101 H101       30.7386   24.0427   -4.2206 H         1 UNK         0.0767 
    102 H102       29.3357   23.8310   -5.2564 H         1 UNK         0.0767 
    103 H103       29.5786   25.3541   -4.4227 H         1 UNK         0.0767 
    104 H104       29.4758   23.3917   -1.1423 H         1 UNK         0.3013 
    105 H105       26.7937   27.1727    1.0001 H         1 UNK         0.3121 
    106 H106       26.8159   30.0819    1.3188 H         1 UNK         0.0774 
    107 H107       27.8415   28.2351   -0.8995 H         1 UNK         0.0815 
    108 H108       26.3006   29.0972   -0.8649 H         1 UNK         0.0815 
    109 H109       27.8081   29.9911   -0.9831 H         1 UNK         0.0815 
    110 H110       28.0954   29.9610    3.3146 H         1 UNK         0.2987 
    111 H111       30.7848   28.9924    3.3273 H         1 UNK         0.0949 
    112 H112       30.7840   29.8331    5.6577 H         1 UNK         0.0806 
    113 H113       29.2907   30.7192    5.3680 H         1 UNK         0.0806 
    114 H114       29.3055   28.9547    5.3212 H         1 UNK         0.0806 
    115 H115       31.1260   30.3937    1.2653 H         1 UNK         0.3010 
    116 H116       32.0902   33.0596    1.4602 H         1 UNK         0.0829 
    117 H117       31.6972   31.8842   -0.7084 H         1 UNK         0.0813 
    118 H118       33.3514   32.4692   -0.6185 H         1 UNK         0.0813 
    119 H119       33.0134   30.7637   -0.3612 H         1 UNK         0.0813 
    120 H120       33.8484   33.8899    2.4087 H         1 UNK         0.3038 
    121 H121       35.5648   34.1560    3.7853 H         1 UNK         0.0769 
    122 H122       37.6854   33.0001    3.2757 H         1 UNK         0.0811 
    123 H123       36.8771   33.4144    1.7741 H         1 UNK         0.0811 
    124 H124       36.8415   31.7546    2.3684 H         1 UNK         0.0811 
    125 H125       33.3648   32.4998    4.7251 H         1 UNK         0.3204 
    126 H126       32.6558   31.2641    6.3948 H         1 UNK         0.0748 
    127 H127       33.8626   31.2450    8.5411 H         1 UNK         0.0771 
    128 H128       35.3586   31.7327    7.7592 H         1 UNK         0.0771 
    129 H129       33.9880   32.8401    7.8211 H         1 UNK         0.0771 
    130 H130       33.9989   29.9721    4.1300 H         1 UNK         0.2980 
    131 H131       34.5047   28.0110    3.3443 H         1 UNK         0.0545 
    132 H132       37.9801   28.7203    4.9176 H         1 UNK         0.3459 
    133 H133       36.6044   29.7940    4.9774 H         1 UNK         0.3459 
    134 H134       34.2560   25.8516    4.5757 H         1 UNK         0.0616 
    135 H135       33.9811   26.7137    6.0637 H         1 UNK         0.0616 
    136 H136       31.1749   26.5231    6.7650 H         1 UNK         0.0634 
    137 H137       32.1228   25.1325    6.2840 H         1 UNK         0.0634 
@<TRIPOS>BOND
     1    1    2 1    
     2    1   72 1    
     3    1   73 1    
     4    1   74 1    
     5    2    3 2    
     6    2    4 am   BACKBONE|DICT|INTERRES
     7    4    5 1    
     8    4   75 1    
     9    5    6 1    
    10    5   35 1    
    11    5   76 1    
    12    6    7 1    
    13    6   77 1    
    14    6   78 1    
    15    7    8 1    
    16    8    9 1    
    17    8   79 1    
    18    8   80 1    
    19    9   10 ar   
    20    9   14 ar   
    21   10   11 ar   
    22   10   81 1    
    23   11   12 ar   
    24   11   71 1    
    25   12   13 ar   
    26   12   82 1    
    27   13   14 ar   
    28   13   15 1    
    29   14   83 1    
    30   15   16 1    
    31   15   84 1    
    32   15   85 1    
    33   16   17 1    
    34   17   18 1    
    35   17   86 1    
    36   17   87 1    
    37   18   19 1    
    38   18   37 1    
    39   18   88 1    
    40   19   20 am   BACKBONE|DICT|INTERRES
    41   19   89 1    
    42   20   21 2    
    43   20   22 1    
    44   22   23 1    
    45   22   24 1    
    46   22   90 1    
    47   23   91 1    
    48   23   92 1    
    49   23   93 1    
    50   24   25 am   BACKBONE|DICT|INTERRES
    51   24   94 1    
    52   25   26 2    
    53   25   27 1    
    54   27   28 1    
    55   27   29 1    
    56   27   95 1    
    57   28   96 1    
    58   28   97 1    
    59   28   98 1    
    60   29   30 am   BACKBONE|DICT|INTERRES
    61   29   99 1    
    62   30   31 2    
    63   30   32 1    
    64   32   33 1    
    65   32   34 1    
    66   32  100 1    
    67   33  101 1    
    68   33  102 1    
    69   33  103 1    
    70   34   35 am   BACKBONE|DICT|INTERRES
    71   34  104 1    
    72   35   36 2    
    73   37   38 2    
    74   37   39 am   BACKBONE|DICT|INTERRES
    75   39   40 1    
    76   39  105 1    
    77   40   41 1    
    78   40   42 1    
    79   40  106 1    
    80   41  107 1    
    81   41  108 1    
    82   41  109 1    
    83   42   43 2    
    84   42   44 am   BACKBONE|DICT|INTERRES
    85   44   45 1    
    86   44  110 1    
    87   45   46 1    
    88   45   47 1    
    89   45  111 1    
    90   46  112 1    
    91   46  113 1    
    92   46  114 1    
    93   47   48 2    
    94   47   49 am   BACKBONE|DICT|INTERRES
    95   49   50 1    
    96   49  115 1    
    97   50   51 1    
    98   50   52 1    
    99   50  116 1    
   100   51  117 1    
   101   51  118 1    
   102   51  119 1    
   103   52   53 2    
   104   52   54 am   BACKBONE|DICT|INTERRES
   105   54   55 1    
   106   54  120 1    
   107   55   56 1    
   108   55   57 1    
   109   55  121 1    
   110   56  122 1    
   111   56  123 1    
   112   56  124 1    
   113   57   58 2    
   114   57   59 am   BACKBONE|DICT|INTERRES
   115   59   60 1    
   116   59  125 1    
   117   60   61 1    
   118   60   62 1    
   119   60  126 1    
   120   61  127 1    
   121   61  128 1    
   122   61  129 1    
   123   62   63 2    
   124   62   64 am   BACKBONE|DICT|INTERRES
   125   64   65 1    
   126   64  130 1    
   127   65   66 1    
   128   65   69 1    
   129   65  131 1    
   130   66   67 am   BACKBONE|DICT|INTERRES
   131   66   68 2    
   132   67  132 1    
   133   67  133 1    
   134   69   70 1    
   135   69  134 1    
   136   69  135 1    
   137   70   71 1    
   138   71  136 1    
   139   71  137 1    
@<TRIPOS>SUBSTRUCTURE
     1 UNK         1 GROUP             0       ****    0 ROOT    
