@<TRIPOS>MOLECULE
3R136
137   139    1
SMALL
USER_CHARGES


@<TRIPOS>ATOM
      1 CA         30.1521   23.8465   -5.5734 C.3       0 UNK        -0.1979 
      2 C          29.5012   24.3139   -4.2799 C.2       0 UNK         0.4864 
      3 O          28.3039   24.6035   -4.2679 O.2       0 UNK        -0.5359 
      4 N          30.2805   24.3967   -3.1938 N.am      1 UNK        -0.4318 
      5 CA         29.8118   24.7648   -1.8571 C.3       1 UNK         0.0824 
      6 C6         30.9976   25.1790   -0.9497 C.3       12 UNK        -0.0944 
      7 S7         30.5014   25.7992    0.6970 S.3       12 UNK        -0.2672 
      8 C8         30.9030   24.3551    1.7363 C.3       12 UNK         0.0333 
      9 C9         30.9942   24.7238    3.2093 C.ar      12 UNK        -0.0807 
     10 C10        32.2323   24.7315    3.8583 C.ar      12 UNK        -0.0894 
     11 C11        32.3231   25.0519    5.2168 C.ar      12 UNK        -0.0804 
     12 C12        31.1607   25.3957    5.9152 C.ar      12 UNK        -0.0824 
     13 C13        29.9122   25.3904    5.2833 C.ar      12 UNK        -0.0762 
     14 C14        29.8380   25.0249    3.9332 C.ar      12 UNK        -0.0782 
     15 C15        28.6677   25.7315    6.1058 C.3       12 UNK         0.0230 
     16 S16        27.2573   26.4051    5.1572 S.3       12 UNK        -0.2608 
     17 C17        27.9191   28.0006    4.5676 C.3       12 UNK        -0.0989 
     18 CA         28.0866   28.0300    3.0263 C.3       5 UNK         0.0716 
     19 N          26.8273   27.7999    2.2953 N.am      5 UNK        -0.4135 
     20 C          25.7072   28.5376    2.3108 C.2       4 UNK         0.5031 
     21 O          25.5997   29.6118    2.9029 O.2       4 UNK        -0.5229 
     22 CA         24.5178   28.0176    1.4898 C.3       4 UNK         0.0329 
     23 CB         24.5754   28.5770    0.0590 C.3       4 UNK        -0.2001 
     24 N          24.4422   26.5565    1.4343 N.am      4 UNK        -0.4303 
     25 C          24.0664   25.7591    2.4409 C.2       3 UNK         0.5044 
     26 O          23.7614   26.1738    3.5592 O.2       3 UNK        -0.5152 
     27 CA         23.9816   24.2450    2.1556 C.3       3 UNK         0.0319 
     28 CB         22.6751   23.9063    1.4112 C.3       3 UNK        -0.2001 
     29 N          25.1428   23.6405    1.4792 N.am      3 UNK        -0.4354 
     30 C          25.6358   23.8943    0.2589 C.2       2 UNK         0.4964 
     31 O          25.2073   24.7680   -0.4997 O.2       2 UNK        -0.5047 
     32 CA         26.8050   23.0223   -0.2060 C.3       2 UNK         0.0288 
     33 CB         26.3050   21.8698   -1.0980 C.3       2 UNK        -0.2113 
     34 N          27.7226   23.8869   -0.9376 N.am      2 UNK        -0.4145 
     35 C          28.9917   23.6090   -1.2495 C.2       1 UNK         0.5006 
     36 O          29.5322   22.5183   -1.0490 O.2       1 UNK        -0.5103 
     37 C          28.8860   29.2737    2.5786 C.2       5 UNK         0.5055 
     38 O          30.1179   29.2423    2.6286 O.2       5 UNK        -0.5220 
     39 N          28.2015   30.3304    2.1216 N.am      6 UNK        -0.4450 
     40 CA         28.7625   31.5922    1.6274 C.3       6 UNK         0.0367 
     41 CB         27.6149   32.5263    1.2142 C.3       6 UNK        -0.1929 
     42 C          29.7641   31.4307    0.4702 C.2       6 UNK         0.5070 
     43 O          30.6876   32.2360    0.3623 O.2       6 UNK        -0.5237 
     44 N          29.6096   30.3646   -0.3281 N.am      7 UNK        -0.4739 
     45 CA         30.5253   29.9614   -1.4013 C.3       7 UNK         0.0276 
     46 CB         29.9305   28.7485   -2.1338 C.3       7 UNK        -0.1927 
     47 C          31.9608   29.6549   -0.9275 C.2       7 UNK         0.5013 
     48 O          32.8958   29.8357   -1.7081 O.2       7 UNK        -0.5193 
     49 N          32.1113   29.2286    0.3340 N.am      8 UNK        -0.4253 
     50 CA         33.3959   29.0286    1.0097 C.3       8 UNK         0.0242 
     51 CB         33.4619   27.5811    1.5321 C.3       8 UNK        -0.2000 
     52 C          33.5900   30.0291    2.1631 C.2       8 UNK         0.4948 
     53 O          34.4967   29.8306    2.9720 O.2       8 UNK        -0.5275 
     54 N          32.7166   31.0462    2.2705 N.am      9 UNK        -0.4246 
     55 CA         32.5973   32.0019    3.3835 C.3       9 UNK         0.0261 
     56 CB         33.7772   32.9960    3.3658 C.3       9 UNK        -0.1959 
     57 C          32.4226   31.3114    4.7546 C.2       9 UNK         0.5033 
     58 O          32.9661   31.7828    5.7562 O.2       9 UNK        -0.5390 
     59 N          31.7296   30.1603    4.7552 N.am      10 UNK        -0.4215 
     60 CA         31.5845   29.2000    5.8573 C.3       10 UNK         0.0240 
     61 CB         30.6417   29.7627    6.9407 C.3       10 UNK        -0.1982 
     62 C          32.9247   28.6953    6.4356 C.2       10 UNK         0.4970 
     63 O          32.9680   28.2889    7.5980 O.2       10 UNK        -0.4916 
     64 N          33.9879   28.7411    5.6205 N.am      11 UNK        -0.4279 
     65 CA         35.3829   28.4517    5.9782 C.3       11 UNK         0.1003 
     66 C          36.0096   29.4746    6.9749 C.2       11 UNK         0.5709 
     67 N          35.4434   30.6647    7.1501 N.am      11 UNK        -0.7358 
     68 O          37.0449   29.2033    7.5793 O.2       11 UNK        -0.4999 
     69 C69        35.6226   26.9692    6.3800 C.3       12 UNK        -0.0954 
     70 S70        35.0306   25.7964    5.1087 S.3       12 UNK        -0.2268 
     71 C71        33.6537   24.9499    5.9575 C.3       12 UNK         0.0203 
     72 H72        30.0505   24.6118   -6.3424 H         1 UNK         0.0888 
     73 H73        31.2135   23.6357   -5.4433 H         1 UNK         0.0888 
     74 H74        29.6674   22.9381   -5.9300 H         1 UNK         0.0888 
     75 H75        31.2488   24.1163   -3.2573 H         1 UNK         0.3017 
     76 H76        29.1594   25.6338   -1.9656 H         1 UNK         0.0873 
     77 H77        31.5587   25.9814   -1.4318 H         1 UNK         0.0745 
     78 H78        31.7048   24.3548   -0.8417 H         1 UNK         0.0745 
     79 H79        31.8464   23.9180    1.4061 H         1 UNK         0.0705 
     80 H80        30.1426   23.5855    1.5981 H         1 UNK         0.0705 
     81 H81        33.1268   24.4666    3.3113 H         1 UNK         0.1334 
     82 H82        31.2243   25.6425    6.9667 H         1 UNK         0.1417 
     83 H83        28.8813   24.9775    3.4333 H         1 UNK         0.1562 
     84 H84        28.9227   26.4454    6.8909 H         1 UNK         0.0748 
     85 H85        28.3359   24.8244    6.6123 H         1 UNK         0.0748 
     86 H86        28.8716   28.1864    5.0619 H         1 UNK         0.0940 
     87 H87        27.2515   28.7968    4.9012 H         1 UNK         0.0940 
     88 H88        28.7226   27.1921    2.7473 H         1 UNK         0.0703 
     89 H89        26.8020   26.9509    1.7509 H         1 UNK         0.3081 
     90 H90        23.6057   28.3866    1.9640 H         1 UNK         0.0719 
     91 H91        25.4536   28.2207   -0.4813 H         1 UNK         0.0809 
     92 H92        23.6926   28.2906   -0.5130 H         1 UNK         0.0809 
     93 H93        24.6151   29.6674    0.0657 H         1 UNK         0.0809 
     94 H94        24.6678   26.1038    0.5497 H         1 UNK         0.2990 
     95 H95        23.9313   23.7559    3.1300 H         1 UNK         0.0690 
     96 H96        22.5469   22.8289    1.3066 H         1 UNK         0.0788 
     97 H97        22.6477   24.3446    0.4130 H         1 UNK         0.0788 
     98 H98        21.8075   24.2837    1.9543 H         1 UNK         0.0788 
     99 H99        25.6005   22.9176    2.0180 H         1 UNK         0.2993 
    100 H100       27.3238   22.6160    0.6651 H         1 UNK         0.0949 
    101 H101       27.1225   21.2197   -1.4097 H         1 UNK         0.0767 
    102 H102       25.5843   21.2476   -0.5656 H         1 UNK         0.0767 
    103 H103       25.8141   22.2435   -1.9976 H         1 UNK         0.0767 
    104 H104       27.3343   24.7937   -1.1663 H         1 UNK         0.3013 
    105 H105       27.1886   30.2785    2.2010 H         1 UNK         0.3121 
    106 H106       29.2982   32.0542    2.4588 H         1 UNK         0.0774 
    107 H107       27.9981   33.4866    0.8660 H         1 UNK         0.0815 
    108 H108       27.0187   32.1000    0.4064 H         1 UNK         0.0815 
    109 H109       26.9476   32.7303    2.0519 H         1 UNK         0.0815 
    110 H110       28.8201   29.7598   -0.1559 H         1 UNK         0.2987 
    111 H111       30.5919   30.7922   -2.1072 H         1 UNK         0.0949 
    112 H112       30.5948   28.4014   -2.9268 H         1 UNK         0.0806 
    113 H113       29.7696   27.9135   -1.4528 H         1 UNK         0.0806 
    114 H114       28.9748   28.9931   -2.5977 H         1 UNK         0.0806 
    115 H115       31.2857   29.1072    0.9123 H         1 UNK         0.3010 
    116 H116       34.2260   29.1814    0.3174 H         1 UNK         0.0829 
    117 H117       33.3542   26.8629    0.7196 H         1 UNK         0.0813 
    118 H118       34.4170   27.3742    2.0167 H         1 UNK         0.0813 
    119 H119       32.6769   27.3817    2.2634 H         1 UNK         0.0813 
    120 H120       32.0337   31.1641    1.5302 H         1 UNK         0.3038 
    121 H121       31.6821   32.5688    3.2083 H         1 UNK         0.0769 
    122 H122       33.6395   33.7815    4.1098 H         1 UNK         0.0811 
    123 H123       33.8700   33.4833    2.3953 H         1 UNK         0.0811 
    124 H124       34.7243   32.5021    3.5858 H         1 UNK         0.0811 
    125 H125       31.3051   29.8643    3.8765 H         1 UNK         0.3204 
    126 H126       31.1135   28.3190    5.4217 H         1 UNK         0.0748 
    127 H127       30.4022   29.0036    7.6863 H         1 UNK         0.0771 
    128 H128       31.0926   30.6058    7.4653 H         1 UNK         0.0771 
    129 H129       29.6991   30.1017    6.5113 H         1 UNK         0.0771 
    130 H130       33.8762   29.1153    4.6836 H         1 UNK         0.2980 
    131 H131       35.9398   28.6151    5.0552 H         1 UNK         0.0545 
    132 H132       35.8655   31.3193    7.7886 H         1 UNK         0.3459 
    133 H133       34.5973   30.9208    6.6523 H         1 UNK         0.3459 
    134 H134       36.6908   26.7846    6.5049 H         1 UNK         0.0616 
    135 H135       35.1729   26.7551    7.3496 H         1 UNK         0.0616 
    136 H136       33.5454   25.3273    6.9745 H         1 UNK         0.0634 
    137 H137       33.9118   23.8950    6.0561 H         1 UNK         0.0634 
@<TRIPOS>BOND
     1    1    2 1    
     2    1   72 1    
     3    1   73 1    
     4    1   74 1    
     5    2    3 2    
     6    2    4 am   BACKBONE|DICT|INTERRES
     7    4    5 1    
     8    4   75 1    
     9    5    6 1    
    10    5   35 1    
    11    5   76 1    
    12    6    7 1    
    13    6   77 1    
    14    6   78 1    
    15    7    8 1    
    16    8    9 1    
    17    8   79 1    
    18    8   80 1    
    19    9   10 ar   
    20    9   14 ar   
    21   10   11 ar   
    22   10   81 1    
    23   11   12 ar   
    24   11   71 1    
    25   12   13 ar   
    26   12   82 1    
    27   13   14 ar   
    28   13   15 1    
    29   14   83 1    
    30   15   16 1    
    31   15   84 1    
    32   15   85 1    
    33   16   17 1    
    34   17   18 1    
    35   17   86 1    
    36   17   87 1    
    37   18   19 1    
    38   18   37 1    
    39   18   88 1    
    40   19   20 am   BACKBONE|DICT|INTERRES
    41   19   89 1    
    42   20   21 2    
    43   20   22 1    
    44   22   23 1    
    45   22   24 1    
    46   22   90 1    
    47   23   91 1    
    48   23   92 1    
    49   23   93 1    
    50   24   25 am   BACKBONE|DICT|INTERRES
    51   24   94 1    
    52   25   26 2    
    53   25   27 1    
    54   27   28 1    
    55   27   29 1    
    56   27   95 1    
    57   28   96 1    
    58   28   97 1    
    59   28   98 1    
    60   29   30 am   BACKBONE|DICT|INTERRES
    61   29   99 1    
    62   30   31 2    
    63   30   32 1    
    64   32   33 1    
    65   32   34 1    
    66   32  100 1    
    67   33  101 1    
    68   33  102 1    
    69   33  103 1    
    70   34   35 am   BACKBONE|DICT|INTERRES
    71   34  104 1    
    72   35   36 2    
    73   37   38 2    
    74   37   39 am   BACKBONE|DICT|INTERRES
    75   39   40 1    
    76   39  105 1    
    77   40   41 1    
    78   40   42 1    
    79   40  106 1    
    80   41  107 1    
    81   41  108 1    
    82   41  109 1    
    83   42   43 2    
    84   42   44 am   BACKBONE|DICT|INTERRES
    85   44   45 1    
    86   44  110 1    
    87   45   46 1    
    88   45   47 1    
    89   45  111 1    
    90   46  112 1    
    91   46  113 1    
    92   46  114 1    
    93   47   48 2    
    94   47   49 am   BACKBONE|DICT|INTERRES
    95   49   50 1    
    96   49  115 1    
    97   50   51 1    
    98   50   52 1    
    99   50  116 1    
   100   51  117 1    
   101   51  118 1    
   102   51  119 1    
   103   52   53 2    
   104   52   54 am   BACKBONE|DICT|INTERRES
   105   54   55 1    
   106   54  120 1    
   107   55   56 1    
   108   55   57 1    
   109   55  121 1    
   110   56  122 1    
   111   56  123 1    
   112   56  124 1    
   113   57   58 2    
   114   57   59 am   BACKBONE|DICT|INTERRES
   115   59   60 1    
   116   59  125 1    
   117   60   61 1    
   118   60   62 1    
   119   60  126 1    
   120   61  127 1    
   121   61  128 1    
   122   61  129 1    
   123   62   63 2    
   124   62   64 am   BACKBONE|DICT|INTERRES
   125   64   65 1    
   126   64  130 1    
   127   65   66 1    
   128   65   69 1    
   129   65  131 1    
   130   66   67 am   BACKBONE|DICT|INTERRES
   131   66   68 2    
   132   67  132 1    
   133   67  133 1    
   134   69   70 1    
   135   69  134 1    
   136   69  135 1    
   137   70   71 1    
   138   71  136 1    
   139   71  137 1    
@<TRIPOS>SUBSTRUCTURE
     1 UNK         1 GROUP             0       ****    0 ROOT    
