@<TRIPOS>MOLECULE
3R136
137   139    1
SMALL
USER_CHARGES


@<TRIPOS>ATOM
      1 CA         32.8735   18.4975   -1.4784 C.3       0 UNK        -0.1979 
      2 C          32.1668   19.7478   -0.9758 C.2       0 UNK         0.4864 
      3 O          32.4675   20.8487   -1.4398 O.2       0 UNK        -0.5359 
      4 N          31.2363   19.5882   -0.0261 N.am      1 UNK        -0.4318 
      5 CA         30.4269   20.6663    0.5467 C.3       1 UNK         0.0824 
      6 C6         29.6921   20.2101    1.8332 C.3       12 UNK        -0.0944 
      7 S7         30.8562   19.9339    3.2096 S.3       12 UNK        -0.2672 
      8 C8         30.1439   20.9795    4.5309 C.3       12 UNK         0.0333 
      9 C9         30.0028   22.4632    4.1846 C.ar      12 UNK        -0.0807 
     10 C10        30.9187   23.1169    3.3511 C.ar      12 UNK        -0.0894 
     11 C11        30.7694   24.4733    3.0514 C.ar      12 UNK        -0.0804 
     12 C12        29.7017   25.1854    3.6055 C.ar      12 UNK        -0.0824 
     13 C13        28.7970   24.5580    4.4669 C.ar      12 UNK        -0.0762 
     14 C14        28.9494   23.1957    4.7445 C.ar      12 UNK        -0.0782 
     15 C15        27.6558   25.3523    5.0905 C.3       12 UNK         0.0230 
     16 S16        28.2817   26.6851    6.1612 S.3       12 UNK        -0.2608 
     17 C17        27.2316   28.1001    5.6842 C.3       12 UNK        -0.0989 
     18 CA         27.8255   28.8628    4.4719 C.3       5 UNK         0.0716 
     19 N          27.4259   28.2597    3.1961 N.am      5 UNK        -0.4135 
     20 C          27.9961   28.5293    2.0164 C.2       4 UNK         0.5031 
     21 O          29.0124   29.2140    1.8992 O.2       4 UNK        -0.5229 
     22 CA         27.3277   27.9190    0.7716 C.3       4 UNK         0.0329 
     23 CB         28.0096   28.3371   -0.5435 C.3       4 UNK        -0.2001 
     24 N          27.3077   26.4594    0.8418 N.am      4 UNK        -0.4303 
     25 C          26.3879   25.7252    1.4794 C.2       3 UNK         0.5044 
     26 O          25.4598   26.2227    2.1197 O.2       3 UNK        -0.5152 
     27 CA         26.5556   24.1927    1.4481 C.3       3 UNK         0.0319 
     28 CB         25.2058   23.4537    1.3360 C.3       3 UNK        -0.2001 
     29 N          27.5172   23.7122    0.4461 N.am      3 UNK        -0.4354 
     30 C          27.4058   23.7440   -0.8932 C.2       2 UNK         0.4964 
     31 O          26.4355   24.2074   -1.4921 O.2       2 UNK        -0.5047 
     32 CA         28.5878   23.1849   -1.7099 C.3       2 UNK         0.0288 
     33 CB         29.3061   24.3125   -2.4711 C.3       2 UNK        -0.2113 
     34 N          29.5593   22.4670   -0.8771 N.am      2 UNK        -0.4145 
     35 C          29.4177   21.1911   -0.4911 C.2       1 UNK         0.5006 
     36 O          28.5174   20.4479   -0.8890 O.2       1 UNK        -0.5103 
     37 C          27.4503   30.3596    4.4861 C.2       5 UNK         0.5055 
     38 O          26.4478   30.7442    3.8800 O.2       5 UNK        -0.5220 
     39 N          28.2801   31.1687    5.1591 N.am      6 UNK        -0.4450 
     40 CA         28.2601   32.6349    5.2676 C.3       6 UNK         0.0367 
     41 CB         26.8829   33.1869    5.6875 C.3       6 UNK        -0.1929 
     42 C          28.8166   33.3667    4.0324 C.2       6 UNK         0.5070 
     43 O          29.2857   34.4960    4.1805 O.2       6 UNK        -0.5237 
     44 N          28.8036   32.7311    2.8525 N.am      7 UNK        -0.4739 
     45 CA         29.4052   33.2443    1.6208 C.3       7 UNK         0.0276 
     46 CB         28.8431   32.4666    0.4180 C.3       7 UNK        -0.1927 
     47 C          30.9351   33.1303    1.7064 C.2       7 UNK         0.5013 
     48 O          31.4712   32.0442    1.4817 O.2       7 UNK        -0.5193 
     49 N          31.5935   34.2373    2.0857 N.am      8 UNK        -0.4253 
     50 CA         33.0247   34.3466    2.4071 C.3       8 UNK         0.0242 
     51 CB         33.8909   34.1875    1.1402 C.3       8 UNK        -0.2000 
     52 C          33.4150   33.3737    3.5364 C.2       8 UNK         0.4948 
     53 O          34.2935   32.5272    3.3594 O.2       8 UNK        -0.5275 
     54 N          32.6818   33.4749    4.6550 N.am      9 UNK        -0.4246 
     55 CA         32.6440   32.5656    5.8074 C.3       9 UNK         0.0261 
     56 CB         34.0239   32.3722    6.4685 C.3       9 UNK        -0.1959 
     57 C          31.9689   31.2278    5.4662 C.2       9 UNK         0.5033 
     58 O          30.9528   30.9004    6.0817 O.2       9 UNK        -0.5390 
     59 N          32.4957   30.5065    4.4716 N.am      10 UNK        -0.4215 
     60 CA         31.8903   29.3056    3.9081 C.3       10 UNK         0.0240 
     61 CB         31.9768   28.1224    4.8949 C.3       10 UNK        -0.1982 
     62 C          32.5588   28.9686    2.5718 C.2       10 UNK         0.4970 
     63 O          33.7789   28.7970    2.5358 O.2       10 UNK        -0.4916 
     64 N          31.7382   28.8424    1.5226 N.am      11 UNK        -0.4279 
     65 CA         32.0964   28.4243    0.1569 C.3       11 UNK         0.1003 
     66 C          33.1554   29.3225   -0.5515 C.2       11 UNK         0.5709 
     67 N          33.2306   30.6093   -0.2400 N.am      11 UNK        -0.7358 
     68 O          33.9002   28.8633   -1.4151 O.2       11 UNK        -0.4999 
     69 C69        32.4058   26.9017    0.0551 C.3       12 UNK        -0.0954 
     70 S70        31.0366   25.8542    0.6618 S.3       12 UNK        -0.2268 
     71 C71        31.7890   25.1800    2.1712 C.3       12 UNK         0.0203 
     72 H72        32.7055   18.3763   -2.5482 H         1 UNK         0.0888 
     73 H73        33.9467   18.5794   -1.3086 H         1 UNK         0.0888 
     74 H74        32.5185   17.5982   -0.9752 H         1 UNK         0.0888 
     75 H75        31.0264   18.6605    0.3134 H         1 UNK         0.3017 
     76 H76        31.1004   21.4845    0.8106 H         1 UNK         0.0873 
     77 H77        29.1344   19.2882    1.6572 H         1 UNK         0.0745 
     78 H78        28.9504   20.9507    2.1386 H         1 UNK         0.0745 
     79 H79        30.7724   20.8912    5.4178 H         1 UNK         0.0705 
     80 H80        29.1716   20.5637    4.8000 H         1 UNK         0.0705 
     81 H81        31.7580   22.5722    2.9420 H         1 UNK         0.1334 
     82 H82        29.5883   26.2376    3.3841 H         1 UNK         0.1417 
     83 H83        28.2495   22.7043    5.4071 H         1 UNK         0.1562 
     84 H84        27.0048   24.7066    5.6817 H         1 UNK         0.0748 
     85 H85        27.0339   25.7635    4.2992 H         1 UNK         0.0748 
     86 H86        27.1781   28.7451    6.5641 H         1 UNK         0.0940 
     87 H87        26.2068   27.7740    5.4965 H         1 UNK         0.0940 
     88 H88        28.9124   28.8073    4.5366 H         1 UNK         0.0703 
     89 H89        26.5741   27.7120    3.1904 H         1 UNK         0.3081 
     90 H90        26.3024   28.2942    0.7429 H         1 UNK         0.0719 
     91 H91        29.0217   27.9415   -0.6146 H         1 UNK         0.0809 
     92 H92        27.4518   27.9756   -1.4076 H         1 UNK         0.0809 
     93 H93        28.0705   29.4224   -0.6303 H         1 UNK         0.0809 
     94 H94        28.0688   25.9769    0.3871 H         1 UNK         0.2990 
     95 H95        26.9839   23.9228    2.4129 H         1 UNK         0.0690 
     96 H96        25.3447   22.3726    1.3271 H         1 UNK         0.0788 
     97 H97        24.6635   23.7311    0.4318 H         1 UNK         0.0788 
     98 H98        24.5602   23.6886    2.1832 H         1 UNK         0.0788 
     99 H99        28.3727   23.3345    0.8262 H         1 UNK         0.2993 
    100 H100       28.1719   22.4940   -2.4470 H         1 UNK         0.0949 
    101 H101       29.7028   25.0725   -1.7992 H         1 UNK         0.0767 
    102 H102       30.1334   23.9251   -3.0662 H         1 UNK         0.0767 
    103 H103       28.6231   24.8146   -3.1579 H         1 UNK         0.0767 
    104 H104       30.3552   22.9973   -0.5494 H         1 UNK         0.3013 
    105 H105       29.1131   30.7601    5.5814 H         1 UNK         0.3121 
    106 H106       28.9516   32.8622    6.0806 H         1 UNK         0.0774 
    107 H107       26.9534   34.2466    5.9355 H         1 UNK         0.0815 
    108 H108       26.1432   33.0960    4.8920 H         1 UNK         0.0815 
    109 H109       26.4986   32.6727    6.5682 H         1 UNK         0.0815 
    110 H110       28.4237   31.7953    2.8135 H         1 UNK         0.2987 
    111 H111       29.1298   34.2945    1.5010 H         1 UNK         0.0949 
    112 H112       29.2513   32.8517   -0.5171 H         1 UNK         0.0806 
    113 H113       29.0934   31.4070    0.4662 H         1 UNK         0.0806 
    114 H114       27.7580   32.5522    0.3597 H         1 UNK         0.0806 
    115 H115       31.0393   35.0585    2.2904 H         1 UNK         0.3010 
    116 H116       33.1872   35.3543    2.7930 H         1 UNK         0.0829 
    117 H117       33.6054   34.9050    0.3712 H         1 UNK         0.0813 
    118 H118       34.9445   34.3550    1.3667 H         1 UNK         0.0813 
    119 H119       33.8079   33.1886    0.7138 H         1 UNK         0.0813 
    120 H120       31.9609   34.1849    4.6608 H         1 UNK         0.3038 
    121 H121       32.0053   33.0581    6.5427 H         1 UNK         0.0769 
    122 H122       33.9310   31.7946    7.3890 H         1 UNK         0.0811 
    123 H123       34.4745   33.3293    6.7307 H         1 UNK         0.0811 
    124 H124       34.7236   31.8376    5.8259 H         1 UNK         0.0811 
    125 H125       33.3007   30.8813    3.9733 H         1 UNK         0.3204 
    126 H126       30.8433   29.5358    3.7168 H         1 UNK         0.0748 
    127 H127       31.4939   27.2374    4.4863 H         1 UNK         0.0771 
    128 H128       33.0116   27.8605    5.1180 H         1 UNK         0.0771 
    129 H129       31.4762   28.3380    5.8384 H         1 UNK         0.0771 
    130 H130       30.7474   29.0424    1.6579 H         1 UNK         0.2980 
    131 H131       31.1950   28.5966   -0.4289 H         1 UNK         0.0545 
    132 H132       32.6021   31.0162    0.4508 H         1 UNK         0.3459 
    133 H133       33.9109   31.1873   -0.7042 H         1 UNK         0.3459 
    134 H134       33.3268   26.6641    0.5899 H         1 UNK         0.0616 
    135 H135       32.5798   26.6188   -0.9843 H         1 UNK         0.0616 
    136 H136       32.5938   24.5012    1.8848 H         1 UNK         0.0634 
    137 H137       32.2559   25.9838    2.7382 H         1 UNK         0.0634 
@<TRIPOS>BOND
     1    1    2 1    
     2    1   72 1    
     3    1   73 1    
     4    1   74 1    
     5    2    3 2    
     6    2    4 am   BACKBONE|DICT|INTERRES
     7    4    5 1    
     8    4   75 1    
     9    5    6 1    
    10    5   35 1    
    11    5   76 1    
    12    6    7 1    
    13    6   77 1    
    14    6   78 1    
    15    7    8 1    
    16    8    9 1    
    17    8   79 1    
    18    8   80 1    
    19    9   10 ar   
    20    9   14 ar   
    21   10   11 ar   
    22   10   81 1    
    23   11   12 ar   
    24   11   71 1    
    25   12   13 ar   
    26   12   82 1    
    27   13   14 ar   
    28   13   15 1    
    29   14   83 1    
    30   15   16 1    
    31   15   84 1    
    32   15   85 1    
    33   16   17 1    
    34   17   18 1    
    35   17   86 1    
    36   17   87 1    
    37   18   19 1    
    38   18   37 1    
    39   18   88 1    
    40   19   20 am   BACKBONE|DICT|INTERRES
    41   19   89 1    
    42   20   21 2    
    43   20   22 1    
    44   22   23 1    
    45   22   24 1    
    46   22   90 1    
    47   23   91 1    
    48   23   92 1    
    49   23   93 1    
    50   24   25 am   BACKBONE|DICT|INTERRES
    51   24   94 1    
    52   25   26 2    
    53   25   27 1    
    54   27   28 1    
    55   27   29 1    
    56   27   95 1    
    57   28   96 1    
    58   28   97 1    
    59   28   98 1    
    60   29   30 am   BACKBONE|DICT|INTERRES
    61   29   99 1    
    62   30   31 2    
    63   30   32 1    
    64   32   33 1    
    65   32   34 1    
    66   32  100 1    
    67   33  101 1    
    68   33  102 1    
    69   33  103 1    
    70   34   35 am   BACKBONE|DICT|INTERRES
    71   34  104 1    
    72   35   36 2    
    73   37   38 2    
    74   37   39 am   BACKBONE|DICT|INTERRES
    75   39   40 1    
    76   39  105 1    
    77   40   41 1    
    78   40   42 1    
    79   40  106 1    
    80   41  107 1    
    81   41  108 1    
    82   41  109 1    
    83   42   43 2    
    84   42   44 am   BACKBONE|DICT|INTERRES
    85   44   45 1    
    86   44  110 1    
    87   45   46 1    
    88   45   47 1    
    89   45  111 1    
    90   46  112 1    
    91   46  113 1    
    92   46  114 1    
    93   47   48 2    
    94   47   49 am   BACKBONE|DICT|INTERRES
    95   49   50 1    
    96   49  115 1    
    97   50   51 1    
    98   50   52 1    
    99   50  116 1    
   100   51  117 1    
   101   51  118 1    
   102   51  119 1    
   103   52   53 2    
   104   52   54 am   BACKBONE|DICT|INTERRES
   105   54   55 1    
   106   54  120 1    
   107   55   56 1    
   108   55   57 1    
   109   55  121 1    
   110   56  122 1    
   111   56  123 1    
   112   56  124 1    
   113   57   58 2    
   114   57   59 am   BACKBONE|DICT|INTERRES
   115   59   60 1    
   116   59  125 1    
   117   60   61 1    
   118   60   62 1    
   119   60  126 1    
   120   61  127 1    
   121   61  128 1    
   122   61  129 1    
   123   62   63 2    
   124   62   64 am   BACKBONE|DICT|INTERRES
   125   64   65 1    
   126   64  130 1    
   127   65   66 1    
   128   65   69 1    
   129   65  131 1    
   130   66   67 am   BACKBONE|DICT|INTERRES
   131   66   68 2    
   132   67  132 1    
   133   67  133 1    
   134   69   70 1    
   135   69  134 1    
   136   69  135 1    
   137   70   71 1    
   138   71  136 1    
   139   71  137 1    
@<TRIPOS>SUBSTRUCTURE
     1 UNK         1 GROUP             0       ****    0 ROOT    
