@<TRIPOS>MOLECULE
3R136
137   139    1
SMALL
USER_CHARGES


@<TRIPOS>ATOM
      1 CA         31.7518   28.1669    0.4827 C.3       0 UNK        -0.1979 
      2 C          30.9121   26.9012    0.5709 C.2       0 UNK         0.4864 
      3 O          29.6869   26.9736    0.4502 O.2       0 UNK        -0.5359 
      4 N          31.5588   25.7426    0.7727 N.am      1 UNK        -0.4318 
      5 CA         30.9064   24.4319    0.8221 C.3       1 UNK         0.0824 
      6 C6         31.8511   23.3159    1.3336 C.3       12 UNK        -0.0944 
      7 S7         30.9406   21.7803    1.7333 S.3       12 UNK        -0.2672 
      8 C8         30.9921   21.7290    3.5526 C.3       12 UNK         0.0333 
      9 C9         30.2350   22.8841    4.1943 C.ar      12 UNK        -0.0807 
     10 C10        30.9391   23.9273    4.7989 C.ar      12 UNK        -0.0894 
     11 C11        30.2643   24.9917    5.4037 C.ar      12 UNK        -0.0804 
     12 C12        28.8651   24.9912    5.4239 C.ar      12 UNK        -0.0824 
     13 C13        28.1462   23.9327    4.8561 C.ar      12 UNK        -0.0762 
     14 C14        28.8371   22.8901    4.2282 C.ar      12 UNK        -0.0782 
     15 C15        26.6297   23.8685    4.9894 C.3       12 UNK         0.0230 
     16 S16        25.7603   24.2777    3.4445 S.3       12 UNK        -0.2608 
     17 C17        25.8523   26.0990    3.4214 C.3       12 UNK        -0.0989 
     18 CA         26.3782   26.6369    2.0649 C.3       5 UNK         0.0716 
     19 N          25.5083   26.2899    0.9256 N.am      5 UNK        -0.4135 
     20 C          24.2905   26.7907    0.6486 C.2       4 UNK         0.5031 
     21 O          23.6707   27.5551    1.3887 O.2       4 UNK        -0.5229 
     22 CA         23.6477   26.4162   -0.7007 C.3       4 UNK         0.0329 
     23 CB         23.9213   27.5202   -1.7363 C.3       4 UNK        -0.2001 
     24 N          24.1085   25.1379   -1.2406 N.am      4 UNK        -0.4303 
     25 C          23.6639   23.9358   -0.8479 C.2       3 UNK         0.5044 
     26 O          22.7631   23.7721   -0.0244 O.2       3 UNK        -0.5152 
     27 CA         24.3506   22.7030   -1.4740 C.3       3 UNK         0.0319 
     28 CB         23.5403   22.1884   -2.6748 C.3       3 UNK        -0.2001 
     29 N          25.7420   22.9348   -1.8905 N.am      3 UNK        -0.4354 
     30 C          26.7201   23.3205   -1.0607 C.2       2 UNK         0.4964 
     31 O          26.5486   23.5126    0.1463 O.2       2 UNK        -0.5047 
     32 CA         28.0957   23.6056   -1.6756 C.3       2 UNK         0.0288 
     33 CB         28.0305   24.8261   -2.6194 C.3       2 UNK        -0.2113 
     34 N          28.9815   23.8746   -0.5513 N.am      2 UNK        -0.4145 
     35 C          30.2964   24.0914   -0.5537 C.2       1 UNK         0.5006 
     36 O          31.0133   24.0432   -1.5570 O.2       1 UNK        -0.5103 
     37 C          26.6385   28.1602    2.1006 C.2       5 UNK         0.5055 
     38 O          26.0797   28.8676    2.9433 O.2       5 UNK        -0.5220 
     39 N          27.4230   28.6451    1.1300 N.am      6 UNK        -0.4450 
     40 CA         27.6697   30.0682    0.8949 C.3       6 UNK         0.0367 
     41 CB         28.3329   30.2409   -0.4809 C.3       6 UNK        -0.1929 
     42 C          28.5309   30.7087    1.9957 C.2       6 UNK         0.5070 
     43 O          29.4007   30.0473    2.5663 O.2       6 UNK        -0.5237 
     44 N          28.2888   32.0007    2.2496 N.am      7 UNK        -0.4739 
     45 CA         29.0726   32.8181    3.1758 C.3       7 UNK         0.0276 
     46 CB         28.2976   34.1056    3.5006 C.3       7 UNK        -0.1927 
     47 C          30.4507   33.1478    2.5802 C.2       7 UNK         0.5013 
     48 O          30.5345   33.5176    1.4061 O.2       7 UNK        -0.5193 
     49 N          31.4926   33.0281    3.4056 N.am      8 UNK        -0.4253 
     50 CA         32.8958   33.2588    3.0774 C.3       8 UNK         0.0242 
     51 CB         33.4145   32.1395    2.1498 C.3       8 UNK        -0.2000 
     52 C          33.6852   33.2944    4.3927 C.2       8 UNK         0.4948 
     53 O          33.1381   32.9361    5.4405 O.2       8 UNK        -0.5275 
     54 N          34.9620   33.6971    4.3183 N.am      9 UNK        -0.4246 
     55 CA         35.9020   33.6847    5.4487 C.3       9 UNK         0.0261 
     56 CB         37.1957   34.4133    5.0494 C.3       9 UNK        -0.1959 
     57 C          36.2156   32.2642    5.9589 C.2       9 UNK         0.5033 
     58 O          36.4434   32.0831    7.1559 O.2       9 UNK        -0.5390 
     59 N          36.1891   31.2888    5.0458 N.am      10 UNK        -0.4215 
     60 CA         36.2340   29.8558    5.2999 C.3       10 UNK         0.0240 
     61 CB         37.6920   29.3754    5.4073 C.3       10 UNK        -0.1982 
     62 C          35.5067   29.1819    4.1325 C.2       10 UNK         0.4970 
     63 O          35.5716   29.6917    3.0107 O.2       10 UNK        -0.4916 
     64 N          34.8351   28.0595    4.4065 N.am      11 UNK        -0.4279 
     65 CA         34.0699   27.2943    3.4077 C.3       11 UNK         0.1003 
     66 C          34.9311   26.4677    2.4073 C.2       11 UNK         0.5709 
     67 N          36.2388   26.3383    2.5938 N.am      11 UNK        -0.7358 
     68 O          34.3933   25.9371    1.4373 O.2       11 UNK        -0.4999 
     69 C69        32.9975   26.3992    4.0744 C.3       12 UNK        -0.0954 
     70 S70        31.6831   27.3455    4.9088 S.3       12 UNK        -0.2268 
     71 C71        31.0491   26.1074    6.0861 C.3       12 UNK         0.0203 
     72 H72        32.8178   27.9476    0.4391 H         1 UNK         0.0888 
     73 H73        31.5638   28.8018    1.3485 H         1 UNK         0.0888 
     74 H74        31.4928   28.7273   -0.4145 H         1 UNK         0.0888 
     75 H75        32.5723   25.7391    0.8501 H         1 UNK         0.3017 
     76 H76        30.0965   24.5277    1.5501 H         1 UNK         0.0873 
     77 H77        32.3867   23.6505    2.2222 H         1 UNK         0.0745 
     78 H78        32.6208   23.0884    0.5936 H         1 UNK         0.0745 
     79 H79        30.5574   20.7863    3.8879 H         1 UNK         0.0705 
     80 H80        32.0329   21.7145    3.8803 H         1 UNK         0.0705 
     81 H81        32.0190   23.9027    4.8063 H         1 UNK         0.1334 
     82 H82        28.3372   25.7969    5.9157 H         1 UNK         0.1417 
     83 H83        28.2861   22.0710    3.7856 H         1 UNK         0.1562 
     84 H84        26.2796   24.5222    5.7900 H         1 UNK         0.0748 
     85 H85        26.3444   22.8581    5.2860 H         1 UNK         0.0748 
     86 H86        26.4995   26.4353    4.2330 H         1 UNK         0.0940 
     87 H87        24.8610   26.4992    3.6413 H         1 UNK         0.0940 
     88 H88        27.3424   26.1610    1.8752 H         1 UNK         0.0703 
     89 H89        25.8848   25.5876    0.3035 H         1 UNK         0.3081 
     90 H90        22.5678   26.3591   -0.5458 H         1 UNK         0.0719 
     91 H91        24.9871   27.6282   -1.9423 H         1 UNK         0.0809 
     92 H92        23.4146   27.3149   -2.6795 H         1 UNK         0.0809 
     93 H93        23.5599   28.4864   -1.3808 H         1 UNK         0.0809 
     94 H94        24.8318   25.1710   -1.9437 H         1 UNK         0.2990 
     95 H95        24.3638   21.9215   -0.7112 H         1 UNK         0.0690 
     96 H96        23.9563   21.2601   -3.0669 H         1 UNK         0.0788 
     97 H97        23.5146   22.9162   -3.4868 H         1 UNK         0.0788 
     98 H98        22.5076   21.9824   -2.3892 H         1 UNK         0.0788 
     99 H99        25.9519   22.8022   -2.8699 H         1 UNK         0.2993 
    100 H100       28.4448   22.7197   -2.2094 H         1 UNK         0.0949 
    101 H101       27.7000   25.7235   -2.0941 H         1 UNK         0.0767 
    102 H102       29.0028   25.0432   -3.0614 H         1 UNK         0.0767 
    103 H103       27.3413   24.6555   -3.4471 H         1 UNK         0.0767 
    104 H104       28.4754   23.8954    0.3280 H         1 UNK         0.3013 
    105 H105       27.9865   27.9935    0.5905 H         1 UNK         0.3121 
    106 H106       26.7015   30.5735    0.8758 H         1 UNK         0.0774 
    107 H107       29.2927   29.7271   -0.5300 H         1 UNK         0.0815 
    108 H108       27.7015   29.8494   -1.2786 H         1 UNK         0.0815 
    109 H109       28.5162   31.2939   -0.6991 H         1 UNK         0.0815 
    110 H110       27.5884   32.4836    1.7053 H         1 UNK         0.2987 
    111 H111       29.2081   32.2531    4.1013 H         1 UNK         0.0949 
    112 H112       27.3294   33.8843    3.9502 H         1 UNK         0.0806 
    113 H113       28.8495   34.7239    4.2100 H         1 UNK         0.0806 
    114 H114       28.1246   34.7097    2.6088 H         1 UNK         0.0806 
    115 H115       31.3514   32.7635    4.3743 H         1 UNK         0.3010 
    116 H116       32.9934   34.2292    2.5862 H         1 UNK         0.0829 
    117 H117       34.4763   32.2565    1.9314 H         1 UNK         0.0813 
    118 H118       32.8939   32.1385    1.1922 H         1 UNK         0.0813 
    119 H119       33.2788   31.1547    2.5989 H         1 UNK         0.0813 
    120 H120       35.3297   33.9933    3.4249 H         1 UNK         0.3038 
    121 H121       35.4410   34.2338    6.2727 H         1 UNK         0.0769 
    122 H122       36.9983   35.4470    4.7650 H         1 UNK         0.0811 
    123 H123       37.6959   33.9230    4.2132 H         1 UNK         0.0811 
    124 H124       37.9010   34.4375    5.8814 H         1 UNK         0.0811 
    125 H125       35.9762   31.5200    4.0830 H         1 UNK         0.3204 
    126 H126       35.7006   29.6368    6.2276 H         1 UNK         0.0748 
    127 H127       37.7382   28.3021    5.5951 H         1 UNK         0.0771 
    128 H128       38.2497   29.5735    4.4909 H         1 UNK         0.0771 
    129 H129       38.2125   29.8697    6.2279 H         1 UNK         0.0771 
    130 H130       34.8306   27.6955    5.3478 H         1 UNK         0.2980 
    131 H131       33.5394   28.0212    2.7910 H         1 UNK         0.0545 
    132 H132       36.6912   26.7712    3.3819 H         1 UNK         0.3459 
    133 H133       36.7779   25.8024    1.9324 H         1 UNK         0.3459 
    134 H134       33.4719   25.7247    4.7888 H         1 UNK         0.0616 
    135 H135       32.5022   25.7714    3.3349 H         1 UNK         0.0616 
    136 H136       31.8787   25.6857    6.6554 H         1 UNK         0.0634 
    137 H137       30.4160   26.6184    6.8129 H         1 UNK         0.0634 
@<TRIPOS>BOND
     1    1    2 1    
     2    1   72 1    
     3    1   73 1    
     4    1   74 1    
     5    2    3 2    
     6    2    4 am   BACKBONE|DICT|INTERRES
     7    4    5 1    
     8    4   75 1    
     9    5    6 1    
    10    5   35 1    
    11    5   76 1    
    12    6    7 1    
    13    6   77 1    
    14    6   78 1    
    15    7    8 1    
    16    8    9 1    
    17    8   79 1    
    18    8   80 1    
    19    9   10 ar   
    20    9   14 ar   
    21   10   11 ar   
    22   10   81 1    
    23   11   12 ar   
    24   11   71 1    
    25   12   13 ar   
    26   12   82 1    
    27   13   14 ar   
    28   13   15 1    
    29   14   83 1    
    30   15   16 1    
    31   15   84 1    
    32   15   85 1    
    33   16   17 1    
    34   17   18 1    
    35   17   86 1    
    36   17   87 1    
    37   18   19 1    
    38   18   37 1    
    39   18   88 1    
    40   19   20 am   BACKBONE|DICT|INTERRES
    41   19   89 1    
    42   20   21 2    
    43   20   22 1    
    44   22   23 1    
    45   22   24 1    
    46   22   90 1    
    47   23   91 1    
    48   23   92 1    
    49   23   93 1    
    50   24   25 am   BACKBONE|DICT|INTERRES
    51   24   94 1    
    52   25   26 2    
    53   25   27 1    
    54   27   28 1    
    55   27   29 1    
    56   27   95 1    
    57   28   96 1    
    58   28   97 1    
    59   28   98 1    
    60   29   30 am   BACKBONE|DICT|INTERRES
    61   29   99 1    
    62   30   31 2    
    63   30   32 1    
    64   32   33 1    
    65   32   34 1    
    66   32  100 1    
    67   33  101 1    
    68   33  102 1    
    69   33  103 1    
    70   34   35 am   BACKBONE|DICT|INTERRES
    71   34  104 1    
    72   35   36 2    
    73   37   38 2    
    74   37   39 am   BACKBONE|DICT|INTERRES
    75   39   40 1    
    76   39  105 1    
    77   40   41 1    
    78   40   42 1    
    79   40  106 1    
    80   41  107 1    
    81   41  108 1    
    82   41  109 1    
    83   42   43 2    
    84   42   44 am   BACKBONE|DICT|INTERRES
    85   44   45 1    
    86   44  110 1    
    87   45   46 1    
    88   45   47 1    
    89   45  111 1    
    90   46  112 1    
    91   46  113 1    
    92   46  114 1    
    93   47   48 2    
    94   47   49 am   BACKBONE|DICT|INTERRES
    95   49   50 1    
    96   49  115 1    
    97   50   51 1    
    98   50   52 1    
    99   50  116 1    
   100   51  117 1    
   101   51  118 1    
   102   51  119 1    
   103   52   53 2    
   104   52   54 am   BACKBONE|DICT|INTERRES
   105   54   55 1    
   106   54  120 1    
   107   55   56 1    
   108   55   57 1    
   109   55  121 1    
   110   56  122 1    
   111   56  123 1    
   112   56  124 1    
   113   57   58 2    
   114   57   59 am   BACKBONE|DICT|INTERRES
   115   59   60 1    
   116   59  125 1    
   117   60   61 1    
   118   60   62 1    
   119   60  126 1    
   120   61  127 1    
   121   61  128 1    
   122   61  129 1    
   123   62   63 2    
   124   62   64 am   BACKBONE|DICT|INTERRES
   125   64   65 1    
   126   64  130 1    
   127   65   66 1    
   128   65   69 1    
   129   65  131 1    
   130   66   67 am   BACKBONE|DICT|INTERRES
   131   66   68 2    
   132   67  132 1    
   133   67  133 1    
   134   69   70 1    
   135   69  134 1    
   136   69  135 1    
   137   70   71 1    
   138   71  136 1    
   139   71  137 1    
@<TRIPOS>SUBSTRUCTURE
     1 UNK         1 GROUP             0       ****    0 ROOT    
