@<TRIPOS>MOLECULE
3R136
137   139    1
SMALL
USER_CHARGES


@<TRIPOS>ATOM
      1 CA         28.1690   20.6020    2.2088 C.3       0 UNK        -0.1979 
      2 C          28.0941   21.0106    0.7458 C.2       0 UNK         0.4864 
      3 O          27.4620   20.3169   -0.0530 O.2       0 UNK        -0.5359 
      4 N          28.7465   22.1237    0.3880 N.am      1 UNK        -0.4318 
      5 CA         28.7547   22.6820   -0.9682 C.3       1 UNK         0.0824 
      6 C6         29.9419   23.6528   -1.1866 C.3       12 UNK        -0.0944 
      7 S7         31.5371   22.7705   -1.1186 S.3       12 UNK        -0.2672 
      8 C8         32.6675   24.0695   -0.5082 C.3       12 UNK         0.0333 
      9 C9         32.4532   24.5090    0.9416 C.ar      12 UNK        -0.0807 
     10 C10        32.9338   25.7613    1.3373 C.ar      12 UNK        -0.0894 
     11 C11        32.7738   26.2095    2.6517 C.ar      12 UNK        -0.0804 
     12 C12        32.1285   25.3924    3.5818 C.ar      12 UNK        -0.0824 
     13 C13        31.6314   24.1429    3.2018 C.ar      12 UNK        -0.0762 
     14 C14        31.8139   23.6986    1.8892 C.ar      12 UNK        -0.0782 
     15 C15        30.8774   23.2780    4.1998 C.3       12 UNK         0.0230 
     16 S16        29.0854   23.6050    4.1323 S.3       12 UNK        -0.2608 
     17 C17        28.9713   25.2109    4.9916 C.3       12 UNK        -0.0989 
     18 CA         28.8123   26.4028    4.0149 C.3       5 UNK         0.0716 
     19 N          27.5801   26.2987    3.2205 N.am      5 UNK        -0.4135 
     20 C          27.2073   27.1410    2.2487 C.2       4 UNK         0.5031 
     21 O          27.7896   28.1985    2.0075 O.2       4 UNK        -0.5229 
     22 CA         25.9615   26.7458    1.4451 C.3       4 UNK         0.0329 
     23 CB         24.7294   27.5726    1.8636 C.3       4 UNK        -0.2001 
     24 N          26.2156   26.7895    0.0000 N.am      4 UNK        -0.4303 
     25 C          26.3168   27.8476   -0.8233 C.2       3 UNK         0.5044 
     26 O          26.1104   29.0136   -0.4896 O.2       3 UNK        -0.5152 
     27 CA         26.7075   27.5736   -2.2927 C.3       3 UNK         0.0319 
     28 CB         28.1083   28.1303   -2.6002 C.3       3 UNK        -0.2001 
     29 N          26.6736   26.1583   -2.6700 N.am      3 UNK        -0.4354 
     30 C          25.5623   25.4272   -2.8340 C.2       2 UNK         0.4964 
     31 O          24.4238   25.8932   -2.7851 O.2       2 UNK        -0.5047 
     32 CA         25.7474   23.9143   -3.0619 C.3       2 UNK         0.0288 
     33 CB         25.6157   23.5786   -4.5568 C.3       2 UNK        -0.2113 
     34 N          27.0115   23.3595   -2.5545 N.am      2 UNK        -0.4145 
     35 C          27.4130   23.3753   -1.2739 C.2       1 UNK         0.5006 
     36 O          26.7928   23.9413   -0.3694 O.2       1 UNK        -0.5103 
     37 C          28.9829   27.7346    4.7770 C.2       5 UNK         0.5055 
     38 O          30.1185   28.1437    5.0158 O.2       5 UNK        -0.5220 
     39 N          27.8690   28.3814    5.1445 N.am      6 UNK        -0.4450 
     40 CA         27.8543   29.6780    5.8234 C.3       6 UNK         0.0367 
     41 CB         26.5374   29.8097    6.6073 C.3       6 UNK        -0.1929 
     42 C          28.0282   30.8773    4.8714 C.2       6 UNK         0.5070 
     43 O          28.3285   31.9698    5.3545 O.2       6 UNK        -0.5237 
     44 N          27.8021   30.6826    3.5639 N.am      7 UNK        -0.4739 
     45 CA         27.7868   31.7490    2.5572 C.3       7 UNK         0.0276 
     46 CB         26.4091   31.7665    1.8762 C.3       7 UNK        -0.1927 
     47 C          28.9020   31.6064    1.5097 C.2       7 UNK         0.5013 
     48 O          29.3013   32.6212    0.9371 O.2       7 UNK        -0.5193 
     49 N          29.3827   30.3767    1.2705 N.am      8 UNK        -0.4253 
     50 CA         30.4280   30.0361    0.2987 C.3       8 UNK         0.0242 
     51 CB         30.6496   28.5138    0.3130 C.3       8 UNK        -0.2000 
     52 C          31.7573   30.7796    0.5234 C.2       8 UNK         0.4948 
     53 O          32.3473   31.2686   -0.4408 O.2       8 UNK        -0.5275 
     54 N          32.1776   30.8678    1.7895 N.am      9 UNK        -0.4246 
     55 CA         33.3363   31.5943    2.3039 C.3       9 UNK         0.0261 
     56 CB         34.6624   31.0208    1.7564 C.3       9 UNK        -0.1959 
     57 C          33.2845   31.4962    3.8344 C.2       9 UNK         0.5033 
     58 O          32.4574   30.7534    4.3718 O.2       9 UNK        -0.5390 
     59 N          34.1836   32.2110    4.5211 N.am      10 UNK        -0.4215 
     60 CA         34.3399   32.1846    5.9804 C.3       10 UNK         0.0240 
     61 CB         35.0244   33.4893    6.4319 C.3       10 UNK        -0.1982 
     62 C          35.0848   30.9210    6.4654 C.2       10 UNK         0.4970 
     63 O          36.1158   31.0305    7.1322 O.2       10 UNK        -0.4916 
     64 N          34.5649   29.7451    6.0973 N.am      11 UNK        -0.4279 
     65 CA         35.0894   28.4260    6.4766 C.3       11 UNK         0.1003 
     66 C          34.8782   28.1142    7.9834 C.2       11 UNK         0.5709 
     67 N          35.7575   27.3204    8.5796 N.am      11 UNK        -0.7358 
     68 O          33.9114   28.5512    8.6059 O.2       11 UNK        -0.4999 
     69 C69        34.4978   27.2995    5.5895 C.3       12 UNK        -0.0954 
     70 S70        34.9142   27.5212    3.8256 S.3       12 UNK        -0.2268 
     71 C71        33.2698   27.5903    3.0513 C.3       12 UNK         0.0203 
     72 H72        27.3399   21.0384    2.7652 H         1 UNK         0.0888 
     73 H73        28.1138   19.5180    2.3059 H         1 UNK         0.0888 
     74 H74        29.1025   20.9296    2.6652 H         1 UNK         0.0888 
     75 H75        29.1992   22.6835    1.0950 H         1 UNK         0.3017 
     76 H76        28.8618   21.8520   -1.6707 H         1 UNK         0.0873 
     77 H77        29.8800   24.1359   -2.1637 H         1 UNK         0.0745 
     78 H78        29.9260   24.4546   -0.4452 H         1 UNK         0.0745 
     79 H79        33.6904   23.7035   -0.6043 H         1 UNK         0.0705 
     80 H80        32.5848   24.9314   -1.1725 H         1 UNK         0.0705 
     81 H81        33.4338   26.3942    0.6166 H         1 UNK         0.1334 
     82 H82        31.9903   25.7427    4.5947 H         1 UNK         0.1417 
     83 H83        31.4478   22.7210    1.6114 H         1 UNK         0.1562 
     84 H84        31.2514   23.4391    5.2120 H         1 UNK         0.0748 
     85 H85        31.0509   22.2235    3.9801 H         1 UNK         0.0748 
     86 H86        29.8519   25.3361    5.6246 H         1 UNK         0.0940 
     87 H87        28.1234   25.1686    5.6781 H         1 UNK         0.0940 
     88 H88        29.6289   26.3687    3.2925 H         1 UNK         0.0703 
     89 H89        27.0455   25.4535    3.3614 H         1 UNK         0.3081 
     90 H90        25.7384   25.6993    1.6594 H         1 UNK         0.0719 
     91 H91        24.4662   27.3761    2.9034 H         1 UNK         0.0809 
     92 H92        24.9054   28.6450    1.7764 H         1 UNK         0.0809 
     93 H93        23.8594   27.3242    1.2557 H         1 UNK         0.0809 
     94 H94        26.4191   25.8768   -0.3959 H         1 UNK         0.2990 
     95 H95        25.9873   28.1091   -2.9151 H         1 UNK         0.0690 
     96 H96        28.1965   29.1728   -2.2900 H         1 UNK         0.0788 
     97 H97        28.3209   28.0943   -3.6688 H         1 UNK         0.0788 
     98 H98        28.8880   27.5684   -2.0864 H         1 UNK         0.0788 
     99 H99        27.5642   25.6912   -2.7516 H         1 UNK         0.2993 
    100 H100       24.9373   23.4142   -2.5265 H         1 UNK         0.0949 
    101 H101       25.6336   22.5016   -4.7259 H         1 UNK         0.0767 
    102 H102       24.6725   23.9507   -4.9598 H         1 UNK         0.0767 
    103 H103       26.4195   24.0257   -5.1433 H         1 UNK         0.0767 
    104 H104       27.5897   22.8853   -3.2339 H         1 UNK         0.3013 
    105 H105       26.9747   27.9740    4.9133 H         1 UNK         0.3121 
    106 H106       28.6786   29.7105    6.5397 H         1 UNK         0.0774 
    107 H107       26.5043   30.7502    7.1594 H         1 UNK         0.0815 
    108 H108       25.6695   29.7902    5.9467 H         1 UNK         0.0815 
    109 H109       26.4258   29.0061    7.3355 H         1 UNK         0.0815 
    110 H110       27.6158   29.7431    3.2273 H         1 UNK         0.2987 
    111 H111       27.9321   32.7225    3.0308 H         1 UNK         0.0949 
    112 H112       26.1851   30.8110    1.4027 H         1 UNK         0.0806 
    113 H113       25.6160   31.9784    2.5933 H         1 UNK         0.0806 
    114 H114       26.3616   32.5343    1.1028 H         1 UNK         0.0806 
    115 H115       28.9103   29.5882    1.7079 H         1 UNK         0.3010 
    116 H116       30.0561   30.3188   -0.6881 H         1 UNK         0.0829 
    117 H117       31.4211   28.2185   -0.3993 H         1 UNK         0.0813 
    118 H118       30.9557   28.1624    1.2983 H         1 UNK         0.0813 
    119 H119       29.7386   27.9782    0.0490 H         1 UNK         0.0813 
    120 H120       31.6179   30.4541    2.5281 H         1 UNK         0.3038 
    121 H121       33.2392   32.6435    2.0186 H         1 UNK         0.0769 
    122 H122       34.8161   29.9867    2.0603 H         1 UNK         0.0811 
    123 H123       35.5181   31.5906    2.1192 H         1 UNK         0.0811 
    124 H124       34.7056   31.0568    0.6686 H         1 UNK         0.0811 
    125 H125       34.8498   32.7724    4.0099 H         1 UNK         0.3204 
    126 H126       33.3479   32.1609    6.4371 H         1 UNK         0.0748 
    127 H127       35.1158   33.5277    7.5183 H         1 UNK         0.0771 
    128 H128       36.0282   33.5849    6.0159 H         1 UNK         0.0771 
    129 H129       34.4500   34.3646    6.1277 H         1 UNK         0.0771 
    130 H130       33.7095   29.7559    5.5516 H         1 UNK         0.2980 
    131 H131       36.1671   28.4525    6.3030 H         1 UNK         0.0545 
    132 H132       35.6313   27.0946    9.5539 H         1 UNK         0.3459 
    133 H133       36.5480   26.9468    8.0776 H         1 UNK         0.3459 
    134 H134       33.4158   27.2488    5.7192 H         1 UNK         0.0616 
    135 H135       34.8868   26.3261    5.8934 H         1 UNK         0.0616 
    136 H136       32.5541   28.0768    3.7150 H         1 UNK         0.0634 
    137 H137       33.3313   28.2220    2.1656 H         1 UNK         0.0634 
@<TRIPOS>BOND
     1    1    2 1    
     2    1   72 1    
     3    1   73 1    
     4    1   74 1    
     5    2    3 2    
     6    2    4 am   BACKBONE|DICT|INTERRES
     7    4    5 1    
     8    4   75 1    
     9    5    6 1    
    10    5   35 1    
    11    5   76 1    
    12    6    7 1    
    13    6   77 1    
    14    6   78 1    
    15    7    8 1    
    16    8    9 1    
    17    8   79 1    
    18    8   80 1    
    19    9   10 ar   
    20    9   14 ar   
    21   10   11 ar   
    22   10   81 1    
    23   11   12 ar   
    24   11   71 1    
    25   12   13 ar   
    26   12   82 1    
    27   13   14 ar   
    28   13   15 1    
    29   14   83 1    
    30   15   16 1    
    31   15   84 1    
    32   15   85 1    
    33   16   17 1    
    34   17   18 1    
    35   17   86 1    
    36   17   87 1    
    37   18   19 1    
    38   18   37 1    
    39   18   88 1    
    40   19   20 am   BACKBONE|DICT|INTERRES
    41   19   89 1    
    42   20   21 2    
    43   20   22 1    
    44   22   23 1    
    45   22   24 1    
    46   22   90 1    
    47   23   91 1    
    48   23   92 1    
    49   23   93 1    
    50   24   25 am   BACKBONE|DICT|INTERRES
    51   24   94 1    
    52   25   26 2    
    53   25   27 1    
    54   27   28 1    
    55   27   29 1    
    56   27   95 1    
    57   28   96 1    
    58   28   97 1    
    59   28   98 1    
    60   29   30 am   BACKBONE|DICT|INTERRES
    61   29   99 1    
    62   30   31 2    
    63   30   32 1    
    64   32   33 1    
    65   32   34 1    
    66   32  100 1    
    67   33  101 1    
    68   33  102 1    
    69   33  103 1    
    70   34   35 am   BACKBONE|DICT|INTERRES
    71   34  104 1    
    72   35   36 2    
    73   37   38 2    
    74   37   39 am   BACKBONE|DICT|INTERRES
    75   39   40 1    
    76   39  105 1    
    77   40   41 1    
    78   40   42 1    
    79   40  106 1    
    80   41  107 1    
    81   41  108 1    
    82   41  109 1    
    83   42   43 2    
    84   42   44 am   BACKBONE|DICT|INTERRES
    85   44   45 1    
    86   44  110 1    
    87   45   46 1    
    88   45   47 1    
    89   45  111 1    
    90   46  112 1    
    91   46  113 1    
    92   46  114 1    
    93   47   48 2    
    94   47   49 am   BACKBONE|DICT|INTERRES
    95   49   50 1    
    96   49  115 1    
    97   50   51 1    
    98   50   52 1    
    99   50  116 1    
   100   51  117 1    
   101   51  118 1    
   102   51  119 1    
   103   52   53 2    
   104   52   54 am   BACKBONE|DICT|INTERRES
   105   54   55 1    
   106   54  120 1    
   107   55   56 1    
   108   55   57 1    
   109   55  121 1    
   110   56  122 1    
   111   56  123 1    
   112   56  124 1    
   113   57   58 2    
   114   57   59 am   BACKBONE|DICT|INTERRES
   115   59   60 1    
   116   59  125 1    
   117   60   61 1    
   118   60   62 1    
   119   60  126 1    
   120   61  127 1    
   121   61  128 1    
   122   61  129 1    
   123   62   63 2    
   124   62   64 am   BACKBONE|DICT|INTERRES
   125   64   65 1    
   126   64  130 1    
   127   65   66 1    
   128   65   69 1    
   129   65  131 1    
   130   66   67 am   BACKBONE|DICT|INTERRES
   131   66   68 2    
   132   67  132 1    
   133   67  133 1    
   134   69   70 1    
   135   69  134 1    
   136   69  135 1    
   137   70   71 1    
   138   71  136 1    
   139   71  137 1    
@<TRIPOS>SUBSTRUCTURE
     1 UNK         1 GROUP             0       ****    0 ROOT    
