@<TRIPOS>MOLECULE
3R136
137   139    1
SMALL
USER_CHARGES


@<TRIPOS>ATOM
      1 CA         26.5530   19.3062   -0.9918 C.3       0 UNK        -0.1979 
      2 C          27.6599   20.0535   -0.2637 C.2       0 UNK         0.4864 
      3 O          27.9054   19.7856    0.9137 O.2       0 UNK        -0.5359 
      4 N          28.3208   20.9976   -0.9498 N.am      1 UNK        -0.4318 
      5 CA         29.4224   21.8520   -0.4772 C.3       1 UNK         0.0824 
      6 C6         30.6524   21.0490    0.0364 C.3       12 UNK        -0.0944 
      7 S7         32.2384   21.7842   -0.4818 S.3       12 UNK        -0.2672 
      8 C8         33.0707   22.0846    1.1098 C.3       12 UNK         0.0333 
      9 C9         32.5607   23.3437    1.7944 C.ar      12 UNK        -0.0807 
     10 C10        31.7959   23.2611    2.9617 C.ar      12 UNK        -0.0894 
     11 C11        31.3516   24.4223    3.6029 C.ar      12 UNK        -0.0804 
     12 C12        31.6569   25.6715    3.0537 C.ar      12 UNK        -0.0824 
     13 C13        32.4420   25.7664    1.8999 C.ar      12 UNK        -0.0762 
     14 C14        32.8902   24.5992    1.2761 C.ar      12 UNK        -0.0782 
     15 C15        32.8450   27.1283    1.3516 C.3       12 UNK         0.0230 
     16 S16        32.1846   27.4582   -0.3181 S.3       12 UNK        -0.2608 
     17 C17        30.3806   27.3552   -0.0724 C.3       12 UNK        -0.0989 
     18 CA         29.7174   28.7243    0.2259 C.3       5 UNK         0.0716 
     19 N          28.3091   28.7233   -0.1840 N.am      5 UNK        -0.4135 
     20 C          27.4019   29.6862    0.0396 C.2       4 UNK         0.5031 
     21 O          27.6699   30.7805    0.5363 O.2       4 UNK        -0.5229 
     22 CA         25.9322   29.3476   -0.2735 C.3       4 UNK         0.0329 
     23 CB         25.5255   29.9486   -1.6278 C.3       4 UNK        -0.2001 
     24 N          25.6120   27.9116   -0.2599 N.am      4 UNK        -0.4303 
     25 C          25.8256   27.0637    0.7593 C.2       3 UNK         0.5044 
     26 O          26.3539   27.4023    1.8215 O.2       3 UNK        -0.5152 
     27 CA         25.4319   25.5904    0.5493 C.3       3 UNK         0.0319 
     28 CB         25.2220   25.2013   -0.9291 C.3       3 UNK        -0.2001 
     29 N          26.4835   24.7443    1.1074 N.am      3 UNK        -0.4354 
     30 C          26.4161   24.0455    2.2442 C.2       2 UNK         0.4964 
     31 O          25.3978   23.9578    2.9333 O.2       2 UNK        -0.5047 
     32 CA         27.7075   23.3155    2.6729 C.3       2 UNK         0.0288 
     33 CB         27.4937   22.4212    3.9092 C.3       2 UNK        -0.2113 
     34 N          28.2848   22.4950    1.6049 N.am      2 UNK        -0.4145 
     35 C          28.9523   22.9264    0.5266 C.2       1 UNK         0.5006 
     36 O          29.1442   24.1188    0.2817 O.2       1 UNK        -0.5103 
     37 C          29.9068   29.1039    1.7098 C.2       5 UNK         0.5055 
     38 O          30.8049   29.8872    2.0226 O.2       5 UNK        -0.5220 
     39 N          29.0288   28.5920    2.5870 N.am      6 UNK        -0.4450 
     40 CA         29.0378   28.8523    4.0284 C.3       6 UNK         0.0367 
     41 CB         28.0233   27.9245    4.7145 C.3       6 UNK        -0.1929 
     42 C          28.7737   30.3219    4.4101 C.2       6 UNK         0.5070 
     43 O          29.1259   30.7131    5.5224 O.2       6 UNK        -0.5237 
     44 N          28.1845   31.1059    3.4978 N.am      7 UNK        -0.4739 
     45 CA         28.0048   32.5503    3.6365 C.3       7 UNK         0.0276 
     46 CB         26.5747   32.9273    3.2145 C.3       7 UNK        -0.1927 
     47 C          29.0355   33.3187    2.7948 C.2       7 UNK         0.5013 
     48 O          29.6030   34.2951    3.2851 O.2       7 UNK        -0.5193 
     49 N          29.2416   32.8844    1.5428 N.am      8 UNK        -0.4253 
     50 CA         30.0727   33.5651    0.5481 C.3       8 UNK         0.0242 
     51 CB         29.7621   32.9997   -0.8480 C.3       8 UNK        -0.2000 
     52 C          31.5808   33.4947    0.8354 C.2       8 UNK         0.4948 
     53 O          32.2582   34.5176    0.7236 O.2       8 UNK        -0.5275 
     54 N          32.0793   32.2986    1.1718 N.am      9 UNK        -0.4246 
     55 CA         33.5003   32.0268    1.4174 C.3       9 UNK         0.0261 
     56 CB         33.9485   30.8713    0.5088 C.3       9 UNK        -0.1959 
     57 C          33.7879   31.6848    2.8880 C.2       9 UNK         0.5033 
     58 O          34.9242   31.8758    3.3235 O.2       9 UNK        -0.5390 
     59 N          32.7622   31.2031    3.6054 N.am      10 UNK        -0.4215 
     60 CA         32.7439   30.6767    4.9736 C.3       10 UNK         0.0240 
     61 CB         33.4935   31.5674    5.9853 C.3       10 UNK        -0.1982 
     62 C          33.2192   29.2171    5.0249 C.2       10 UNK         0.4970 
     63 O          34.1513   28.8321    4.3167 O.2       10 UNK        -0.4916 
     64 N          32.5477   28.4291    5.8696 N.am      11 UNK        -0.4279 
     65 CA         32.8589   27.0196    6.1308 C.3       11 UNK         0.1003 
     66 C          34.0766   26.8647    7.0827 C.2       11 UNK         0.5709 
     67 N          34.8779   25.8234    6.9063 N.am      11 UNK        -0.7358 
     68 O          34.2835   27.6635    7.9950 O.2       11 UNK        -0.4999 
     69 C69        31.5952   26.2899    6.6576 C.3       12 UNK        -0.0954 
     70 S70        31.6202   24.4899    6.3621 S.3       12 UNK        -0.2268 
     71 C71        30.5548   24.3186    4.8950 C.3       12 UNK         0.0203 
     72 H72        25.6016   19.4563   -0.4823 H         1 UNK         0.0888 
     73 H73        26.4426   19.6419   -2.0228 H         1 UNK         0.0888 
     74 H74        26.7683   18.2380   -1.0045 H         1 UNK         0.0888 
     75 H75        28.0409   21.1745   -1.9051 H         1 UNK         0.3017 
     76 H76        29.7273   22.3965   -1.3727 H         1 UNK         0.0873 
     77 H77        30.6251   20.9092    1.1188 H         1 UNK         0.0745 
     78 H78        30.6423   20.0410   -0.3812 H         1 UNK         0.0745 
     79 H79        34.1410   22.1915    0.9272 H         1 UNK         0.0705 
     80 H80        32.9611   21.2111    1.7546 H         1 UNK         0.0705 
     81 H81        31.5566   22.2928    3.3798 H         1 UNK         0.1334 
     82 H82        31.3103   26.5702    3.5441 H         1 UNK         0.1417 
     83 H83        33.4957   24.6686    0.3824 H         1 UNK         0.1562 
     84 H84        33.9338   27.1782    1.3075 H         1 UNK         0.0748 
     85 H85        32.5447   27.9244    2.0322 H         1 UNK         0.0748 
     86 H86        30.1364   26.6091    0.6862 H         1 UNK         0.0940 
     87 H87        29.9841   26.9469   -1.0034 H         1 UNK         0.0940 
     88 H88        30.2072   29.4927   -0.3751 H         1 UNK         0.0703 
     89 H89        27.9743   27.8709   -0.6064 H         1 UNK         0.3081 
     90 H90        25.3281   29.8187    0.5046 H         1 UNK         0.0719 
     91 H91        26.0702   29.4901   -2.4541 H         1 UNK         0.0809 
     92 H92        24.4591   29.8219   -1.8153 H         1 UNK         0.0809 
     93 H93        25.7309   31.0200   -1.6571 H         1 UNK         0.0809 
     94 H94        25.1798   27.5432   -1.0952 H         1 UNK         0.2990 
     95 H95        24.4918   25.4325    1.0813 H         1 UNK         0.0690 
     96 H96        26.1058   25.4040   -1.5359 H         1 UNK         0.0788 
     97 H97        24.3788   25.7352   -1.3691 H         1 UNK         0.0788 
     98 H98        24.9997   24.1378   -1.0221 H         1 UNK         0.0788 
     99 H99        27.3850   24.7667    0.6381 H         1 UNK         0.2993 
    100 H100       28.4322   24.0893    2.9316 H         1 UNK         0.0949 
    101 H101       26.7243   21.6687    3.7306 H         1 UNK         0.0767 
    102 H102       28.4070   21.8957    4.1873 H         1 UNK         0.0767 
    103 H103       27.1819   23.0122    4.7714 H         1 UNK         0.0767 
    104 H104       28.1160   21.4926    1.6572 H         1 UNK         0.3013 
    105 H105       28.2573   28.0286    2.2408 H         1 UNK         0.3121 
    106 H106       30.0328   28.5994    4.3975 H         1 UNK         0.0774 
    107 H107       28.0706   28.0276    5.7994 H         1 UNK         0.0815 
    108 H108       27.0012   28.1529    4.4096 H         1 UNK         0.0815 
    109 H109       28.2141   26.8780    4.4786 H         1 UNK         0.0815 
    110 H110       27.9434   30.7071    2.5979 H         1 UNK         0.2987 
    111 H111       28.1371   32.8527    4.6779 H         1 UNK         0.0949 
    112 H112       26.3675   32.6509    2.1798 H         1 UNK         0.0806 
    113 H113       25.8350   32.4343    3.8455 H         1 UNK         0.0806 
    114 H114       26.4121   34.0022    3.3044 H         1 UNK         0.0806 
    115 H115       28.6995   32.0898    1.2080 H         1 UNK         0.3010 
    116 H116       29.7899   34.6202    0.5501 H         1 UNK         0.0829 
    117 H117       30.3478   33.5079   -1.6154 H         1 UNK         0.0813 
    118 H118       29.9895   31.9354   -0.9144 H         1 UNK         0.0813 
    119 H119       28.7103   33.1311   -1.1032 H         1 UNK         0.0813 
    120 H120       31.4458   31.5103    1.2708 H         1 UNK         0.3038 
    121 H121       34.1047   32.9014    1.1683 H         1 UNK         0.0769 
    122 H122       35.0073   30.6497    0.6494 H         1 UNK         0.0811 
    123 H123       33.8031   31.1132   -0.5440 H         1 UNK         0.0811 
    124 H124       33.3935   29.9591    0.7232 H         1 UNK         0.0811 
    125 H125       31.9210   30.9873    3.0777 H         1 UNK         0.3204 
    126 H126       31.6931   30.6911    5.2584 H         1 UNK         0.0748 
    127 H127       33.2858   31.2488    7.0075 H         1 UNK         0.0771 
    128 H128       34.5746   31.5191    5.8519 H         1 UNK         0.0771 
    129 H129       33.1876   32.6103    5.9013 H         1 UNK         0.0771 
    130 H130       31.8403   28.8384    6.4620 H         1 UNK         0.2980 
    131 H131       33.1388   26.5730    5.1756 H         1 UNK         0.0545 
    132 H132       35.6665   25.7000    7.5215 H         1 UNK         0.3459 
    133 H133       34.6951   25.1475    6.1810 H         1 UNK         0.3459 
    134 H134       31.4606   26.4655    7.7267 H         1 UNK         0.0616 
    135 H135       30.6995   26.6959    6.1857 H         1 UNK         0.0616 
    136 H136       30.0715   23.3438    4.9513 H         1 UNK         0.0634 
    137 H137       29.7500   25.0535    4.9122 H         1 UNK         0.0634 
@<TRIPOS>BOND
     1    1    2 1    
     2    1   72 1    
     3    1   73 1    
     4    1   74 1    
     5    2    3 2    
     6    2    4 am   BACKBONE|DICT|INTERRES
     7    4    5 1    
     8    4   75 1    
     9    5    6 1    
    10    5   35 1    
    11    5   76 1    
    12    6    7 1    
    13    6   77 1    
    14    6   78 1    
    15    7    8 1    
    16    8    9 1    
    17    8   79 1    
    18    8   80 1    
    19    9   10 ar   
    20    9   14 ar   
    21   10   11 ar   
    22   10   81 1    
    23   11   12 ar   
    24   11   71 1    
    25   12   13 ar   
    26   12   82 1    
    27   13   14 ar   
    28   13   15 1    
    29   14   83 1    
    30   15   16 1    
    31   15   84 1    
    32   15   85 1    
    33   16   17 1    
    34   17   18 1    
    35   17   86 1    
    36   17   87 1    
    37   18   19 1    
    38   18   37 1    
    39   18   88 1    
    40   19   20 am   BACKBONE|DICT|INTERRES
    41   19   89 1    
    42   20   21 2    
    43   20   22 1    
    44   22   23 1    
    45   22   24 1    
    46   22   90 1    
    47   23   91 1    
    48   23   92 1    
    49   23   93 1    
    50   24   25 am   BACKBONE|DICT|INTERRES
    51   24   94 1    
    52   25   26 2    
    53   25   27 1    
    54   27   28 1    
    55   27   29 1    
    56   27   95 1    
    57   28   96 1    
    58   28   97 1    
    59   28   98 1    
    60   29   30 am   BACKBONE|DICT|INTERRES
    61   29   99 1    
    62   30   31 2    
    63   30   32 1    
    64   32   33 1    
    65   32   34 1    
    66   32  100 1    
    67   33  101 1    
    68   33  102 1    
    69   33  103 1    
    70   34   35 am   BACKBONE|DICT|INTERRES
    71   34  104 1    
    72   35   36 2    
    73   37   38 2    
    74   37   39 am   BACKBONE|DICT|INTERRES
    75   39   40 1    
    76   39  105 1    
    77   40   41 1    
    78   40   42 1    
    79   40  106 1    
    80   41  107 1    
    81   41  108 1    
    82   41  109 1    
    83   42   43 2    
    84   42   44 am   BACKBONE|DICT|INTERRES
    85   44   45 1    
    86   44  110 1    
    87   45   46 1    
    88   45   47 1    
    89   45  111 1    
    90   46  112 1    
    91   46  113 1    
    92   46  114 1    
    93   47   48 2    
    94   47   49 am   BACKBONE|DICT|INTERRES
    95   49   50 1    
    96   49  115 1    
    97   50   51 1    
    98   50   52 1    
    99   50  116 1    
   100   51  117 1    
   101   51  118 1    
   102   51  119 1    
   103   52   53 2    
   104   52   54 am   BACKBONE|DICT|INTERRES
   105   54   55 1    
   106   54  120 1    
   107   55   56 1    
   108   55   57 1    
   109   55  121 1    
   110   56  122 1    
   111   56  123 1    
   112   56  124 1    
   113   57   58 2    
   114   57   59 am   BACKBONE|DICT|INTERRES
   115   59   60 1    
   116   59  125 1    
   117   60   61 1    
   118   60   62 1    
   119   60  126 1    
   120   61  127 1    
   121   61  128 1    
   122   61  129 1    
   123   62   63 2    
   124   62   64 am   BACKBONE|DICT|INTERRES
   125   64   65 1    
   126   64  130 1    
   127   65   66 1    
   128   65   69 1    
   129   65  131 1    
   130   66   67 am   BACKBONE|DICT|INTERRES
   131   66   68 2    
   132   67  132 1    
   133   67  133 1    
   134   69   70 1    
   135   69  134 1    
   136   69  135 1    
   137   70   71 1    
   138   71  136 1    
   139   71  137 1    
@<TRIPOS>SUBSTRUCTURE
     1 UNK         1 GROUP             0       ****    0 ROOT    
