@<TRIPOS>MOLECULE
3R136
137   139    1
SMALL
USER_CHARGES


@<TRIPOS>ATOM
      1 CA         27.5053   21.5275    0.1100 C.3       0 UNK        -0.1979 
      2 C          28.4681   22.4209   -0.6567 C.2       0 UNK         0.4864 
      3 O          28.2777   22.6361   -1.8544 O.2       0 UNK        -0.5359 
      4 N          29.5084   22.9269    0.0186 N.am      1 UNK        -0.4318 
      5 CA         30.5357   23.7962   -0.5661 C.3       1 UNK         0.0824 
      6 C6         31.7768   23.9367    0.3483 C.3       12 UNK        -0.0944 
      7 S7         32.5998   22.3361    0.6442 S.3       12 UNK        -0.2672 
      8 C8         33.4228   22.6289    2.2496 C.3       12 UNK         0.0333 
      9 C9         32.4689   22.9571    3.3972 C.ar      12 UNK        -0.0807 
     10 C10        32.8472   23.8972    4.3619 C.ar      12 UNK        -0.0894 
     11 C11        31.9914   24.2166    5.4209 C.ar      12 UNK        -0.0804 
     12 C12        30.7413   23.5986    5.5066 C.ar      12 UNK        -0.0824 
     13 C13        30.3487   22.6613    4.5474 C.ar      12 UNK        -0.0762 
     14 C14        31.2237   22.3282    3.5109 C.ar      12 UNK        -0.0782 
     15 C15        28.9777   22.0090    4.6186 C.3       12 UNK         0.0230 
     16 S16        27.8255   22.7513    3.4196 S.3       12 UNK        -0.2608 
     17 C17        27.4971   24.3859    4.1623 C.3       12 UNK        -0.0989 
     18 CA         27.8830   25.5795    3.2374 C.3       5 UNK         0.0716 
     19 N          27.2463   25.5404    1.9109 N.am      5 UNK        -0.4135 
     20 C          25.9314   25.4796    1.6577 C.2       4 UNK         0.5031 
     21 O          25.0607   25.5251    2.5293 O.2       4 UNK        -0.5229 
     22 CA         25.5276   25.3394    0.1750 C.3       4 UNK         0.0329 
     23 CB         24.0011   25.2203   -0.0184 C.3       4 UNK        -0.2001 
     24 N          26.0604   26.3972   -0.6909 N.am      4 UNK        -0.4303 
     25 C          25.9252   27.7235   -0.5516 C.2       3 UNK         0.5044 
     26 O          25.3718   28.2592    0.4082 O.2       3 UNK        -0.5152 
     27 CA         26.5201   28.5934   -1.6798 C.3       3 UNK         0.0319 
     28 CB         26.3541   30.1036   -1.4250 C.3       3 UNK        -0.2001 
     29 N          27.9385   28.3062   -1.8961 N.am      3 UNK        -0.4354 
     30 C          28.4287   27.2603   -2.5731 C.2       2 UNK         0.4964 
     31 O          27.7201   26.4399   -3.1593 O.2       2 UNK        -0.5047 
     32 CA         29.9574   27.0617   -2.5612 C.3       2 UNK         0.0288 
     33 CB         30.7296   28.1650   -1.8036 C.3       2 UNK        -0.2113 
     34 N          30.3334   25.7399   -2.0438 N.am      2 UNK        -0.4145 
     35 C          29.9555   25.1868   -0.8803 C.2       1 UNK         0.5006 
     36 O          29.2172   25.7309   -0.0535 O.2       1 UNK        -0.5103 
     37 C          27.7102   26.9368    3.9607 C.2       5 UNK         0.5055 
     38 O          27.9369   27.0043    5.1707 O.2       5 UNK        -0.5220 
     39 N          27.3206   27.9985    3.2389 N.am      6 UNK        -0.4450 
     40 CA         27.2140   29.3561    3.7773 C.3       6 UNK         0.0367 
     41 CB         26.4488   30.2473    2.7882 C.3       6 UNK        -0.1929 
     42 C          28.6007   29.9515    4.0638 C.2       6 UNK         0.5070 
     43 O          29.5035   29.8154    3.2352 O.2       6 UNK        -0.5237 
     44 N          28.7314   30.6314    5.2095 N.am      7 UNK        -0.4739 
     45 CA         29.9507   31.3278    5.6278 C.3       7 UNK         0.0276 
     46 CB         29.7628   31.8569    7.0585 C.3       7 UNK        -0.1927 
     47 C          30.3231   32.4746    4.6715 C.2       7 UNK         0.5013 
     48 O          29.4394   33.0662    4.0467 O.2       7 UNK        -0.5193 
     49 N          31.6290   32.7464    4.5623 N.am      8 UNK        -0.4253 
     50 CA         32.2975   33.6903    3.6539 C.3       8 UNK         0.0242 
     51 CB         31.7565   35.1280    3.7895 C.3       8 UNK        -0.2000 
     52 C          32.3203   33.2255    2.1859 C.2       8 UNK         0.4948 
     53 O          33.3293   33.4446    1.5142 O.2       8 UNK        -0.5275 
     54 N          31.2490   32.5688    1.7179 N.am      9 UNK        -0.4246 
     55 CA         31.2160   31.8346    0.4512 C.3       9 UNK         0.0261 
     56 CB         29.7605   31.5263    0.0583 C.3       9 UNK        -0.1959 
     57 C          32.0617   30.5536    0.5532 C.2       9 UNK         0.5033 
     58 O          32.9576   30.3479   -0.2667 O.2       9 UNK        -0.5390 
     59 N          31.7856   29.7502    1.5861 N.am      10 UNK        -0.4215 
     60 CA         32.5899   28.6195    2.0371 C.3       10 UNK         0.0240 
     61 CB         31.7021   27.3588    2.0547 C.3       10 UNK        -0.1982 
     62 C          33.1360   28.9219    3.4429 C.2       10 UNK         0.4970 
     63 O          32.8715   29.9885    4.0048 O.2       10 UNK        -0.4916 
     64 N          33.8756   27.9528    3.9933 N.am      11 UNK        -0.4279 
     65 CA         34.3491   27.9135    5.3890 C.3       11 UNK         0.1003 
     66 C          35.4957   28.9133    5.7279 C.2       11 UNK         0.5709 
     67 N          36.1291   29.5512    4.7509 N.am      11 UNK        -0.7358 
     68 O          35.8436   29.0895    6.8933 O.2       11 UNK        -0.4999 
     69 C69        33.1968   27.9526    6.4429 C.3       12 UNK        -0.0954 
     70 S70        31.7714   26.8821    6.0434 S.3       12 UNK        -0.2268 
     71 C71        32.4114   25.2359    6.4677 C.3       12 UNK         0.0203 
     72 H72        28.0040   21.0255    0.9388 H         1 UNK         0.0888 
     73 H73        26.6779   22.1133    0.5084 H         1 UNK         0.0888 
     74 H74        27.0956   20.7590   -0.5451 H         1 UNK         0.0888 
     75 H75        29.5983   22.7470    1.0078 H         1 UNK         0.3017 
     76 H76        30.8562   23.3386   -1.5049 H         1 UNK         0.0873 
     77 H77        32.5127   24.6103   -0.0955 H         1 UNK         0.0745 
     78 H78        31.4886   24.3831    1.3014 H         1 UNK         0.0745 
     79 H79        34.1489   23.4326    2.1174 H         1 UNK         0.0705 
     80 H80        33.9924   21.7380    2.5167 H         1 UNK         0.0705 
     81 H81        33.8109   24.3827    4.2909 H         1 UNK         0.1334 
     82 H82        30.0728   23.8574    6.3164 H         1 UNK         0.1417 
     83 H83        30.9221   21.5902    2.7806 H         1 UNK         0.1562 
     84 H84        28.5601   22.0807    5.6242 H         1 UNK         0.0748 
     85 H85        29.0710   20.9433    4.4041 H         1 UNK         0.0748 
     86 H86        28.0350   24.4510    5.1084 H         1 UNK         0.0940 
     87 H87        26.4411   24.4304    4.4319 H         1 UNK         0.0940 
     88 H88        28.9539   25.4992    3.0417 H         1 UNK         0.0703 
     89 H89        27.8966   25.5567    1.1242 H         1 UNK         0.3081 
     90 H90        25.9749   24.4085   -0.1752 H         1 UNK         0.0719 
     91 H91        23.4811   26.1197    0.3136 H         1 UNK         0.0809 
     92 H92        23.7454   25.0520   -1.0645 H         1 UNK         0.0809 
     93 H93        23.5985   24.3818    0.5514 H         1 UNK         0.0809 
     94 H94        26.5790   26.0815   -1.5048 H         1 UNK         0.2990 
     95 H95        25.9682   28.3520   -2.5908 H         1 UNK         0.0690 
     96 H96        26.7165   30.6896   -2.2697 H         1 UNK         0.0788 
     97 H97        26.8968   30.4271   -0.5372 H         1 UNK         0.0788 
     98 H98        25.3047   30.3639   -1.2799 H         1 UNK         0.0788 
     99 H99        28.5941   28.8956   -1.4059 H         1 UNK         0.2993 
    100 H100       30.2748   27.0895   -3.6048 H         1 UNK         0.0949 
    101 H101       30.4169   28.2458   -0.7626 H         1 UNK         0.0767 
    102 H102       31.8018   27.9677   -1.8063 H         1 UNK         0.0767 
    103 H103       30.5894   29.1390   -2.2738 H         1 UNK         0.0767 
    104 H104       30.9139   25.1900   -2.6617 H         1 UNK         0.3013 
    105 H105       27.1353   27.8800    2.2532 H         1 UNK         0.3121 
    106 H106       26.6452   29.3101    4.7086 H         1 UNK         0.0774 
    107 H107       26.3578   31.2656    3.1684 H         1 UNK         0.0815 
    108 H108       26.9568   30.3039    1.8258 H         1 UNK         0.0815 
    109 H109       25.4395   29.8738    2.6152 H         1 UNK         0.0815 
    110 H110       27.9289   30.7253    5.8146 H         1 UNK         0.2987 
    111 H111       30.7618   30.5957    5.6265 H         1 UNK         0.0949 
    112 H112       28.9490   32.5811    7.1167 H         1 UNK         0.0806 
    113 H113       29.5452   31.0480    7.7562 H         1 UNK         0.0806 
    114 H114       30.6664   32.3538    7.4142 H         1 UNK         0.0806 
    115 H115       32.2637   32.1345    5.0598 H         1 UNK         0.3010 
    116 H116       33.3380   33.7074    3.9828 H         1 UNK         0.0829 
    117 H117       31.7641   35.4594    4.8278 H         1 UNK         0.0813 
    118 H118       32.3729   35.8259    3.2214 H         1 UNK         0.0813 
    119 H119       30.7380   35.2228    3.4126 H         1 UNK         0.0813 
    120 H120       30.4525   32.4697    2.3379 H         1 UNK         0.3038 
    121 H121       31.6497   32.4678   -0.3259 H         1 UNK         0.0769 
    122 H122       29.7179   31.0328   -0.9125 H         1 UNK         0.0811 
    123 H123       29.1709   32.4398   -0.0203 H         1 UNK         0.0811 
    124 H124       29.2683   30.8745    0.7802 H         1 UNK         0.0811 
    125 H125       31.0239   29.9957    2.2189 H         1 UNK         0.3204 
    126 H126       33.4380   28.4561    1.3694 H         1 UNK         0.0748 
    127 H127       30.8638   27.4657    2.7448 H         1 UNK         0.0771 
    128 H128       31.2944   27.1496    1.0680 H         1 UNK         0.0771 
    129 H129       32.2611   26.4742    2.3601 H         1 UNK         0.0771 
    130 H130       34.0734   27.1275    3.4484 H         1 UNK         0.2980 
    131 H131       34.8232   26.9365    5.4817 H         1 UNK         0.0545 
    132 H132       36.8774   30.1862    4.9793 H         1 UNK         0.3459 
    133 H133       35.8555   29.4145    3.7915 H         1 UNK         0.3459 
    134 H134       33.5706   27.6731    7.4294 H         1 UNK         0.0616 
    135 H135       32.8166   28.9704    6.5445 H         1 UNK         0.0616 
    136 H136       33.4984   25.2565    6.5515 H         1 UNK         0.0634 
    137 H137       32.0349   24.9485    7.4505 H         1 UNK         0.0634 
@<TRIPOS>BOND
     1    1    2 1    
     2    1   72 1    
     3    1   73 1    
     4    1   74 1    
     5    2    3 2    
     6    2    4 am   BACKBONE|DICT|INTERRES
     7    4    5 1    
     8    4   75 1    
     9    5    6 1    
    10    5   35 1    
    11    5   76 1    
    12    6    7 1    
    13    6   77 1    
    14    6   78 1    
    15    7    8 1    
    16    8    9 1    
    17    8   79 1    
    18    8   80 1    
    19    9   10 ar   
    20    9   14 ar   
    21   10   11 ar   
    22   10   81 1    
    23   11   12 ar   
    24   11   71 1    
    25   12   13 ar   
    26   12   82 1    
    27   13   14 ar   
    28   13   15 1    
    29   14   83 1    
    30   15   16 1    
    31   15   84 1    
    32   15   85 1    
    33   16   17 1    
    34   17   18 1    
    35   17   86 1    
    36   17   87 1    
    37   18   19 1    
    38   18   37 1    
    39   18   88 1    
    40   19   20 am   BACKBONE|DICT|INTERRES
    41   19   89 1    
    42   20   21 2    
    43   20   22 1    
    44   22   23 1    
    45   22   24 1    
    46   22   90 1    
    47   23   91 1    
    48   23   92 1    
    49   23   93 1    
    50   24   25 am   BACKBONE|DICT|INTERRES
    51   24   94 1    
    52   25   26 2    
    53   25   27 1    
    54   27   28 1    
    55   27   29 1    
    56   27   95 1    
    57   28   96 1    
    58   28   97 1    
    59   28   98 1    
    60   29   30 am   BACKBONE|DICT|INTERRES
    61   29   99 1    
    62   30   31 2    
    63   30   32 1    
    64   32   33 1    
    65   32   34 1    
    66   32  100 1    
    67   33  101 1    
    68   33  102 1    
    69   33  103 1    
    70   34   35 am   BACKBONE|DICT|INTERRES
    71   34  104 1    
    72   35   36 2    
    73   37   38 2    
    74   37   39 am   BACKBONE|DICT|INTERRES
    75   39   40 1    
    76   39  105 1    
    77   40   41 1    
    78   40   42 1    
    79   40  106 1    
    80   41  107 1    
    81   41  108 1    
    82   41  109 1    
    83   42   43 2    
    84   42   44 am   BACKBONE|DICT|INTERRES
    85   44   45 1    
    86   44  110 1    
    87   45   46 1    
    88   45   47 1    
    89   45  111 1    
    90   46  112 1    
    91   46  113 1    
    92   46  114 1    
    93   47   48 2    
    94   47   49 am   BACKBONE|DICT|INTERRES
    95   49   50 1    
    96   49  115 1    
    97   50   51 1    
    98   50   52 1    
    99   50  116 1    
   100   51  117 1    
   101   51  118 1    
   102   51  119 1    
   103   52   53 2    
   104   52   54 am   BACKBONE|DICT|INTERRES
   105   54   55 1    
   106   54  120 1    
   107   55   56 1    
   108   55   57 1    
   109   55  121 1    
   110   56  122 1    
   111   56  123 1    
   112   56  124 1    
   113   57   58 2    
   114   57   59 am   BACKBONE|DICT|INTERRES
   115   59   60 1    
   116   59  125 1    
   117   60   61 1    
   118   60   62 1    
   119   60  126 1    
   120   61  127 1    
   121   61  128 1    
   122   61  129 1    
   123   62   63 2    
   124   62   64 am   BACKBONE|DICT|INTERRES
   125   64   65 1    
   126   64  130 1    
   127   65   66 1    
   128   65   69 1    
   129   65  131 1    
   130   66   67 am   BACKBONE|DICT|INTERRES
   131   66   68 2    
   132   67  132 1    
   133   67  133 1    
   134   69   70 1    
   135   69  134 1    
   136   69  135 1    
   137   70   71 1    
   138   71  136 1    
   139   71  137 1    
@<TRIPOS>SUBSTRUCTURE
     1 UNK         1 GROUP             0       ****    0 ROOT    
