@<TRIPOS>MOLECULE
3R136
137   139    1
SMALL
USER_CHARGES


@<TRIPOS>ATOM
      1 CA         30.6184   22.4901    5.4556 C.3       0 UNK        -0.1979 
      2 C          29.4578   22.6514    4.4861 C.2       0 UNK         0.4864 
      3 O          28.3176   22.3556    4.8446 O.2       0 UNK        -0.5359 
      4 N          29.7402   23.1129    3.2596 N.am      1 UNK        -0.4318 
      5 CA         28.7597   23.2506    2.1719 C.3       1 UNK         0.0824 
      6 C6         29.4389   23.3296    0.7815 C.3       12 UNK        -0.0944 
      7 S7         30.5807   21.9297    0.4922 S.3       12 UNK        -0.2672 
      8 C8         31.9932   22.7107   -0.3544 C.3       12 UNK         0.0333 
      9 C9         32.7071   23.7385    0.5139 C.ar      12 UNK        -0.0807 
     10 C10        33.5789   23.3336    1.5284 C.ar      12 UNK        -0.0894 
     11 C11        34.2468   24.2833    2.3079 C.ar      12 UNK        -0.0804 
     12 C12        34.0167   25.6436    2.0787 C.ar      12 UNK        -0.0824 
     13 C13        33.1459   26.0684    1.0703 C.ar      12 UNK        -0.0762 
     14 C14        32.5108   25.1016    0.2799 C.ar      12 UNK        -0.0782 
     15 C15        32.9345   27.5742    0.8834 C.3       12 UNK         0.0230 
     16 S16        32.0639   28.0844   -0.6401 S.3       12 UNK        -0.2608 
     17 C17        30.3231   27.7878   -0.1770 C.3       12 UNK        -0.0989 
     18 CA         29.3460   27.9903   -1.3636 C.3       5 UNK         0.0716 
     19 N          28.0933   27.2796   -1.1202 N.am      5 UNK        -0.4135 
     20 C          27.2872   26.7798   -2.0662 C.2       4 UNK         0.5031 
     21 O          27.5718   26.7626   -3.2647 O.2       4 UNK        -0.5229 
     22 CA         25.9331   26.1954   -1.6135 C.3       4 UNK         0.0329 
     23 CB         25.9842   24.6599   -1.5922 C.3       4 UNK        -0.2001 
     24 N          25.5100   26.6882   -0.2991 N.am      4 UNK        -0.4303 
     25 C          25.0285   27.9226   -0.0852 C.2       3 UNK         0.5044 
     26 O          24.7459   28.7041   -0.9941 O.2       3 UNK        -0.5152 
     27 CA         24.8315   28.3848    1.3736 C.3       3 UNK         0.0319 
     28 CB         23.3353   28.4451    1.7225 C.3       3 UNK        -0.2001 
     29 N          25.5224   27.5870    2.3929 N.am      3 UNK        -0.4354 
     30 C          26.8448   27.3866    2.4775 C.2       2 UNK         0.4964 
     31 O          27.6520   27.8043    1.6495 O.2       2 UNK        -0.5047 
     32 CA         27.3680   26.5591    3.6635 C.3       2 UNK         0.0288 
     33 CB         26.2760   26.1108    4.6611 C.3       2 UNK        -0.2113 
     34 N          28.1568   25.3999    3.2270 N.am      2 UNK        -0.4145 
     35 C          27.7778   24.4266    2.3813 C.2       1 UNK         0.5006 
     36 O          26.6991   24.4191    1.7842 O.2       1 UNK        -0.5103 
     37 C          29.0540   29.4884   -1.5802 C.2       5 UNK         0.5055 
     38 O          28.0370   29.9992   -1.1041 O.2       5 UNK        -0.5220 
     39 N          29.9914   30.1850   -2.2378 N.am      6 UNK        -0.4450 
     40 CA         30.0266   31.6499   -2.3033 C.3       6 UNK         0.0367 
     41 CB         31.0672   32.0955   -3.3428 C.3       6 UNK        -0.1929 
     42 C          30.3258   32.2796   -0.9292 C.2       6 UNK         0.5070 
     43 O          29.7828   33.3380   -0.6115 O.2       6 UNK        -0.5237 
     44 N          31.1539   31.5974   -0.1263 N.am      7 UNK        -0.4739 
     45 CA         31.3984   31.9052    1.2791 C.3       7 UNK         0.0276 
     46 CB         32.8401   31.5042    1.6404 C.3       7 UNK        -0.1927 
     47 C          30.3591   31.1544    2.1233 C.2       7 UNK         0.5013 
     48 O          30.6305   30.0452    2.5858 O.2       7 UNK        -0.5193 
     49 N          29.1759   31.7626    2.2905 N.am      8 UNK        -0.4253 
     50 CA         27.9986   31.1859    2.9584 C.3       8 UNK         0.0242 
     51 CB         26.8349   32.1871    2.8860 C.3       8 UNK        -0.2000 
     52 C          28.2188   30.7161    4.4115 C.2       8 UNK         0.4948 
     53 O          27.4474   29.8908    4.9004 O.2       8 UNK        -0.5275 
     54 N          29.2766   31.2201    5.0622 N.am      9 UNK        -0.4246 
     55 CA         29.7661   30.7824    6.3717 C.3       9 UNK         0.0261 
     56 CB         30.7493   31.8386    6.9051 C.3       9 UNK        -0.1959 
     57 C          30.4230   29.3837    6.3714 C.2       9 UNK         0.5033 
     58 O          30.7139   28.8778    7.4563 O.2       9 UNK        -0.5390 
     59 N          30.6464   28.7914    5.1871 N.am      10 UNK        -0.4215 
     60 CA         31.3059   27.5065    4.9378 C.3       10 UNK         0.0240 
     61 CB         30.6394   26.3428    5.7140 C.3       10 UNK        -0.1982 
     62 C          32.8300   27.6033    5.1390 C.2       10 UNK         0.4970 
     63 O          33.4208   28.6427    4.8386 O.2       10 UNK        -0.4916 
     64 N          33.4420   26.4961    5.5725 N.am      11 UNK        -0.4279 
     65 CA         34.8884   26.3149    5.7425 C.3       11 UNK         0.1003 
     66 C          35.5055   27.2575    6.8117 C.2       11 UNK         0.5709 
     67 N          36.7245   27.7320    6.5930 N.am      11 UNK        -0.7358 
     68 O          34.9106   27.5215    7.8550 O.2       11 UNK        -0.4999 
     69 C69        35.2438   24.8332    6.0457 C.3       12 UNK        -0.0954 
     70 S70        34.3985   23.6104    4.9814 S.3       12 UNK        -0.2268 
     71 C71        35.2304   23.8381    3.3812 C.3       12 UNK         0.0203 
     72 H72        30.4612   23.1057    6.3407 H         1 UNK         0.0888 
     73 H73        30.6984   21.4511    5.7739 H         1 UNK         0.0888 
     74 H74        31.5661   22.7765    5.0023 H         1 UNK         0.0888 
     75 H75        30.7000   23.2978    3.0025 H         1 UNK         0.3017 
     76 H76        28.1470   22.3461    2.1780 H         1 UNK         0.0873 
     77 H77        28.6893   23.3101   -0.0107 H         1 UNK         0.0745 
     78 H78        29.9660   24.2764    0.6737 H         1 UNK         0.0745 
     79 H79        31.6442   23.1627   -1.2843 H         1 UNK         0.0705 
     80 H80        32.7006   21.9325   -0.6445 H         1 UNK         0.0705 
     81 H81        33.7438   22.2791    1.7042 H         1 UNK         0.1334 
     82 H82        34.5268   26.3812    2.6810 H         1 UNK         0.1417 
     83 H83        31.8547   25.3932   -0.5260 H         1 UNK         0.1562 
     84 H84        33.9105   28.0617    0.8785 H         1 UNK         0.0748 
     85 H85        32.4003   27.9708    1.7481 H         1 UNK         0.0748 
     86 H86        30.0587   28.4261    0.6671 H         1 UNK         0.0940 
     87 H87        30.2368   26.7709    0.2048 H         1 UNK         0.0940 
     88 H88        29.8007   27.5866   -2.2712 H         1 UNK         0.0703 
     89 H89        27.7517   27.3444   -0.1644 H         1 UNK         0.3081 
     90 H90        25.1860   26.4948   -2.3517 H         1 UNK         0.0719 
     91 H91        26.2433   24.2646   -2.5753 H         1 UNK         0.0809 
     92 H92        26.7284   24.2911   -0.8877 H         1 UNK         0.0809 
     93 H93        25.0200   24.2335   -1.3153 H         1 UNK         0.0809 
     94 H94        25.7108   26.0964    0.4983 H         1 UNK         0.2990 
     95 H95        25.2359   29.3974    1.4353 H         1 UNK         0.0690 
     96 H96        23.1739   28.8792    2.7095 H         1 UNK         0.0788 
     97 H97        22.8791   27.4545    1.7102 H         1 UNK         0.0788 
     98 H98        22.7904   29.0636    1.0077 H         1 UNK         0.0788 
     99 H99        24.9406   27.1757    3.1085 H         1 UNK         0.2993 
    100 H100       28.0474   27.2271    4.1934 H         1 UNK         0.0949 
    101 H101       26.7176   25.5805    5.5051 H         1 UNK         0.0767 
    102 H102       25.7396   26.9669    5.0735 H         1 UNK         0.0767 
    103 H103       25.5472   25.4416    4.2017 H         1 UNK         0.0767 
    104 H104       29.0769   25.3187    3.6313 H         1 UNK         0.3013 
    105 H105       30.7992   29.6925   -2.5935 H         1 UNK         0.3121 
    106 H106       29.0446   32.0030   -2.6258 H         1 UNK         0.0774 
    107 H107       30.8308   31.7065   -4.3333 H         1 UNK         0.0815 
    108 H108       31.0957   33.1832   -3.4219 H         1 UNK         0.0815 
    109 H109       32.0721   31.7620   -3.0806 H         1 UNK         0.0815 
    110 H110       31.5204   30.7154   -0.4565 H         1 UNK         0.2987 
    111 H111       31.2912   32.9774    1.4592 H         1 UNK         0.0949 
    112 H112       33.5660   32.0803    1.0667 H         1 UNK         0.0806 
    113 H113       33.0421   31.6860    2.6969 H         1 UNK         0.0806 
    114 H114       33.0300   30.4477    1.4522 H         1 UNK         0.0806 
    115 H115       29.0392   32.6572    1.8392 H         1 UNK         0.3010 
    116 H116       27.7164   30.3044    2.3819 H         1 UNK         0.0829 
    117 H117       27.0680   33.1153    3.4092 H         1 UNK         0.0813 
    118 H118       25.9339   31.7726    3.3409 H         1 UNK         0.0813 
    119 H119       26.5875   32.4337    1.8531 H         1 UNK         0.0813 
    120 H120       29.8448   31.8968    4.5745 H         1 UNK         0.3038 
    121 H121       28.9123   30.7344    7.0509 H         1 UNK         0.0769 
    122 H122       30.2800   32.8200    6.9768 H         1 UNK         0.0811 
    123 H123       31.6285   31.9296    6.2659 H         1 UNK         0.0811 
    124 H124       31.1002   31.5773    7.9045 H         1 UNK         0.0811 
    125 H125       30.4632   29.3323    4.3440 H         1 UNK         0.3204 
    126 H126       31.1578   27.3142    3.8740 H         1 UNK         0.0748 
    127 H127       29.5534   26.3997    5.6804 H         1 UNK         0.0771 
    128 H128       30.9260   25.3799    5.2932 H         1 UNK         0.0771 
    129 H129       30.9228   26.3389    6.7674 H         1 UNK         0.0771 
    130 H130       32.8801   25.6917    5.8037 H         1 UNK         0.2980 
    131 H131       35.3448   26.5753    4.7872 H         1 UNK         0.0545 
    132 H132       37.1468   28.3308    7.2854 H         1 UNK         0.3459 
    133 H133       37.2297   27.5102    5.7494 H         1 UNK         0.3459 
    134 H134       34.9797   24.5876    7.0762 H         1 UNK         0.0616 
    135 H135       36.3211   24.6763    5.9669 H         1 UNK         0.0616 
    136 H136       35.6968   22.8951    3.0922 H         1 UNK         0.0634 
    137 H137       36.0429   24.5604    3.4702 H         1 UNK         0.0634 
@<TRIPOS>BOND
     1    1    2 1    
     2    1   72 1    
     3    1   73 1    
     4    1   74 1    
     5    2    3 2    
     6    2    4 am   BACKBONE|DICT|INTERRES
     7    4    5 1    
     8    4   75 1    
     9    5    6 1    
    10    5   35 1    
    11    5   76 1    
    12    6    7 1    
    13    6   77 1    
    14    6   78 1    
    15    7    8 1    
    16    8    9 1    
    17    8   79 1    
    18    8   80 1    
    19    9   10 ar   
    20    9   14 ar   
    21   10   11 ar   
    22   10   81 1    
    23   11   12 ar   
    24   11   71 1    
    25   12   13 ar   
    26   12   82 1    
    27   13   14 ar   
    28   13   15 1    
    29   14   83 1    
    30   15   16 1    
    31   15   84 1    
    32   15   85 1    
    33   16   17 1    
    34   17   18 1    
    35   17   86 1    
    36   17   87 1    
    37   18   19 1    
    38   18   37 1    
    39   18   88 1    
    40   19   20 am   BACKBONE|DICT|INTERRES
    41   19   89 1    
    42   20   21 2    
    43   20   22 1    
    44   22   23 1    
    45   22   24 1    
    46   22   90 1    
    47   23   91 1    
    48   23   92 1    
    49   23   93 1    
    50   24   25 am   BACKBONE|DICT|INTERRES
    51   24   94 1    
    52   25   26 2    
    53   25   27 1    
    54   27   28 1    
    55   27   29 1    
    56   27   95 1    
    57   28   96 1    
    58   28   97 1    
    59   28   98 1    
    60   29   30 am   BACKBONE|DICT|INTERRES
    61   29   99 1    
    62   30   31 2    
    63   30   32 1    
    64   32   33 1    
    65   32   34 1    
    66   32  100 1    
    67   33  101 1    
    68   33  102 1    
    69   33  103 1    
    70   34   35 am   BACKBONE|DICT|INTERRES
    71   34  104 1    
    72   35   36 2    
    73   37   38 2    
    74   37   39 am   BACKBONE|DICT|INTERRES
    75   39   40 1    
    76   39  105 1    
    77   40   41 1    
    78   40   42 1    
    79   40  106 1    
    80   41  107 1    
    81   41  108 1    
    82   41  109 1    
    83   42   43 2    
    84   42   44 am   BACKBONE|DICT|INTERRES
    85   44   45 1    
    86   44  110 1    
    87   45   46 1    
    88   45   47 1    
    89   45  111 1    
    90   46  112 1    
    91   46  113 1    
    92   46  114 1    
    93   47   48 2    
    94   47   49 am   BACKBONE|DICT|INTERRES
    95   49   50 1    
    96   49  115 1    
    97   50   51 1    
    98   50   52 1    
    99   50  116 1    
   100   51  117 1    
   101   51  118 1    
   102   51  119 1    
   103   52   53 2    
   104   52   54 am   BACKBONE|DICT|INTERRES
   105   54   55 1    
   106   54  120 1    
   107   55   56 1    
   108   55   57 1    
   109   55  121 1    
   110   56  122 1    
   111   56  123 1    
   112   56  124 1    
   113   57   58 2    
   114   57   59 am   BACKBONE|DICT|INTERRES
   115   59   60 1    
   116   59  125 1    
   117   60   61 1    
   118   60   62 1    
   119   60  126 1    
   120   61  127 1    
   121   61  128 1    
   122   61  129 1    
   123   62   63 2    
   124   62   64 am   BACKBONE|DICT|INTERRES
   125   64   65 1    
   126   64  130 1    
   127   65   66 1    
   128   65   69 1    
   129   65  131 1    
   130   66   67 am   BACKBONE|DICT|INTERRES
   131   66   68 2    
   132   67  132 1    
   133   67  133 1    
   134   69   70 1    
   135   69  134 1    
   136   69  135 1    
   137   70   71 1    
   138   71  136 1    
   139   71  137 1    
@<TRIPOS>SUBSTRUCTURE
     1 UNK         1 GROUP             0       ****    0 ROOT    
