@<TRIPOS>MOLECULE
3R136
137   139    1
SMALL
USER_CHARGES


@<TRIPOS>ATOM
      1 CA         27.7211   19.4535    6.1344 C.3       0 UNK        -0.1979 
      2 C          27.0008   19.3557    4.7976 C.2       0 UNK         0.4864 
      3 O          25.8282   18.9782    4.7601 O.2       0 UNK        -0.5359 
      4 N          27.6958   19.6825    3.7012 N.am      1 UNK        -0.4318 
      5 CA         27.1534   19.7255    2.3404 C.3       1 UNK         0.0824 
      6 C6         28.2728   19.7192    1.2616 C.3       12 UNK        -0.0944 
      7 S7         29.6546   20.8765    1.5699 S.3       12 UNK        -0.2672 
      8 C8         29.1772   22.3066    0.5498 C.3       12 UNK         0.0333 
      9 C9         30.1814   23.4405    0.6938 C.ar      12 UNK        -0.0807 
     10 C10        30.2793   24.1361    1.9033 C.ar      12 UNK        -0.0894 
     11 C11        31.1804   25.1950    2.0514 C.ar      12 UNK        -0.0804 
     12 C12        32.0040   25.5390    0.9728 C.ar      12 UNK        -0.0824 
     13 C13        31.8993   24.8710   -0.2501 C.ar      12 UNK        -0.0762 
     14 C14        30.9888   23.8182   -0.3834 C.ar      12 UNK        -0.0782 
     15 C15        32.7778   25.2801   -1.4243 C.3       12 UNK         0.0230 
     16 S16        31.9429   26.4702   -2.5254 S.3       12 UNK        -0.2608 
     17 C17        31.9940   28.0205   -1.5580 C.3       12 UNK        -0.0989 
     18 CA         30.5760   28.5665   -1.2271 C.3       5 UNK         0.0716 
     19 N          29.7755   27.5949   -0.4797 N.am      5 UNK        -0.4135 
     20 C          28.4423   27.4824   -0.5184 C.2       4 UNK         0.5031 
     21 O          27.6946   28.2063   -1.1814 O.2       4 UNK        -0.5229 
     22 CA         27.8509   26.3627    0.3549 C.3       4 UNK         0.0329 
     23 CB         27.6885   26.8317    1.8102 C.3       4 UNK        -0.2001 
     24 N          26.5675   25.8554   -0.1339 N.am      4 UNK        -0.4303 
     25 C          26.3805   25.2339   -1.3066 C.2       3 UNK         0.5044 
     26 O          27.2805   24.9906   -2.1134 O.2       3 UNK        -0.5152 
     27 CA         24.9352   24.7789   -1.5871 C.3       3 UNK         0.0319 
     28 CB         24.7338   24.2495   -3.0239 C.3       3 UNK        -0.2001 
     29 N          24.4674   23.7994   -0.5954 N.am      3 UNK        -0.4354 
     30 C          25.0031   22.5967   -0.3353 C.2       2 UNK         0.4964 
     31 O          25.9662   22.1172   -0.9391 O.2       2 UNK        -0.5047 
     32 CA         24.3124   21.7741    0.7666 C.3       2 UNK         0.0288 
     33 CB         23.0247   21.1247    0.2307 C.3       2 UNK        -0.2113 
     34 N          25.2019   20.7201    1.2562 N.am      2 UNK        -0.4145 
     35 C          26.1829   20.9098    2.1475 C.2       1 UNK         0.5006 
     36 O          26.3536   21.9640    2.7675 O.2       1 UNK        -0.5103 
     37 C          30.5788   29.9264   -0.4894 C.2       5 UNK         0.5055 
     38 O          29.5217   30.5451   -0.3497 O.2       5 UNK        -0.5220 
     39 N          31.7493   30.3939   -0.0298 N.am      6 UNK        -0.4450 
     40 CA         31.9446   31.6783    0.6534 C.3       6 UNK         0.0367 
     41 CB         33.4247   32.0888    0.5331 C.3       6 UNK        -0.1929 
     42 C          31.4616   31.6554    2.1175 C.2       6 UNK         0.5070 
     43 O          32.2314   31.9685    3.0273 O.2       6 UNK        -0.5237 
     44 N          30.1922   31.2881    2.3319 N.am      7 UNK        -0.4739 
     45 CA         29.5520   31.1301    3.6440 C.3       7 UNK         0.0276 
     46 CB         28.1146   30.6256    3.4492 C.3       7 UNK        -0.1927 
     47 C          29.5711   32.3994    4.5145 C.2       7 UNK         0.5013 
     48 O          29.6615   32.2903    5.7373 O.2       7 UNK        -0.5193 
     49 N          29.5642   33.5768    3.8725 N.am      8 UNK        -0.4253 
     50 CA         29.7406   34.8882    4.5073 C.3       8 UNK         0.0242 
     51 CB         29.4980   35.9891    3.4622 C.3       8 UNK        -0.2000 
     52 C          31.1167   35.0792    5.1783 C.2       8 UNK         0.4948 
     53 O          31.2249   35.8894    6.0991 O.2       8 UNK        -0.5275 
     54 N          32.1271   34.3233    4.7275 N.am      9 UNK        -0.4246 
     55 CA         33.4706   34.2524    5.3034 C.3       9 UNK         0.0261 
     56 CB         34.4960   34.5136    4.1842 C.3       9 UNK        -0.1959 
     57 C          33.7086   32.8876    5.9801 C.2       9 UNK         0.5033 
     58 O          34.8633   32.4813    6.1280 O.2       9 UNK        -0.5390 
     59 N          32.6239   32.1792    6.3407 N.am      10 UNK        -0.4215 
     60 CA         32.5906   30.8342    6.9328 C.3       10 UNK         0.0240 
     61 CB         33.1286   30.8683    8.3792 C.3       10 UNK        -0.1982 
     62 C          33.2779   29.7563    6.0675 C.2       10 UNK         0.4970 
     63 O          33.7878   28.7748    6.6110 O.2       10 UNK        -0.4916 
     64 N          33.2910   29.9683    4.7440 N.am      11 UNK        -0.4279 
     65 CA         33.9832   29.1575    3.7313 C.3       11 UNK         0.1003 
     66 C          35.5390   29.2004    3.8331 C.2       11 UNK         0.5709 
     67 N          36.1337   30.1591    4.5363 N.am      11 UNK        -0.7358 
     68 O          36.2256   28.3746    3.2358 O.2       11 UNK        -0.4999 
     69 C69        33.4088   27.7186    3.5993 C.3       12 UNK        -0.0954 
     70 S70        31.6149   27.7114    3.2528 S.3       12 UNK        -0.2268 
     71 C71        31.2475   25.9287    3.3902 C.3       12 UNK         0.0203 
     72 H72        28.7526   19.7859    6.0178 H         1 UNK         0.0888 
     73 H73        27.2086   20.1613    6.7853 H         1 UNK         0.0888 
     74 H74        27.7318   18.4819    6.6274 H         1 UNK         0.0888 
     75 H75        28.6455   20.0165    3.7881 H         1 UNK         0.3017 
     76 H76        26.5692   18.8122    2.2040 H         1 UNK         0.0873 
     77 H77        28.7082   18.7197    1.2196 H         1 UNK         0.0745 
     78 H78        27.8641   19.8917    0.2635 H         1 UNK         0.0745 
     79 H79        28.1928   22.6663    0.8504 H         1 UNK         0.0705 
     80 H80        29.0868   21.9954   -0.4922 H         1 UNK         0.0705 
     81 H81        29.6438   23.8489    2.7306 H         1 UNK         0.1334 
     82 H82        32.7249   26.3353    1.0756 H         1 UNK         0.1417 
     83 H83        30.9070   23.2974   -1.3280 H         1 UNK         0.1562 
     84 H84        33.0429   24.3956   -2.0055 H         1 UNK         0.0748 
     85 H85        33.7215   25.7011   -1.0736 H         1 UNK         0.0748 
     86 H86        32.5457   28.7477   -2.1575 H         1 UNK         0.0940 
     87 H87        32.5814   27.8654   -0.6531 H         1 UNK         0.0940 
     88 H88        30.0768   28.7485   -2.1815 H         1 UNK         0.0703 
     89 H89        30.2955   26.9468    0.0948 H         1 UNK         0.3081 
     90 H90        28.5463   25.5269    0.3303 H         1 UNK         0.0719 
     91 H91        28.6315   27.2055    2.2112 H         1 UNK         0.0809 
     92 H92        26.9572   27.6364    1.8938 H         1 UNK         0.0809 
     93 H93        27.3679   26.0143    2.4566 H         1 UNK         0.0809 
     94 H94        25.7652   26.0198    0.4557 H         1 UNK         0.2990 
     95 H95        24.3039   25.6622   -1.4767 H         1 UNK         0.0690 
     96 H96        23.6936   23.9786   -3.2043 H         1 UNK         0.0788 
     97 H97        25.3484   23.3720   -3.2274 H         1 UNK         0.0788 
     98 H98        25.0035   25.0095   -3.7582 H         1 UNK         0.0788 
     99 H99        23.6713   24.0904   -0.0444 H         1 UNK         0.2993 
    100 H100       24.0565   22.4401    1.5940 H         1 UNK         0.0949 
    101 H101       22.3138   21.8794   -0.1082 H         1 UNK         0.0767 
    102 H102       23.2262   20.4651   -0.6146 H         1 UNK         0.0767 
    103 H103       22.5262   20.5378    1.0027 H         1 UNK         0.0767 
    104 H104       25.1595   19.8412    0.7609 H         1 UNK         0.3013 
    105 H105       32.5762   29.8291   -0.1516 H         1 UNK         0.3121 
    106 H106       31.3519   32.4376    0.1388 H         1 UNK         0.0774 
    107 H107       34.0861   31.3801    1.0322 H         1 UNK         0.0815 
    108 H108       33.7338   32.1606   -0.5097 H         1 UNK         0.0815 
    109 H109       33.5968   33.0667    0.9853 H         1 UNK         0.0815 
    110 H110       29.6429   31.0395    1.5130 H         1 UNK         0.2987 
    111 H111       30.1114   30.3637    4.1850 H         1 UNK         0.0949 
    112 H112       28.0999   29.6739    2.9189 H         1 UNK         0.0806 
    113 H113       27.6214   30.4680    4.4095 H         1 UNK         0.0806 
    114 H114       27.5105   31.3352    2.8825 H         1 UNK         0.0806 
    115 H115       29.4912   33.5625    2.8654 H         1 UNK         0.3010 
    116 H116       28.9835   34.9821    5.2888 H         1 UNK         0.0829 
    117 H117       30.2151   35.9332    2.6421 H         1 UNK         0.0813 
    118 H118       29.5921   36.9796    3.9098 H         1 UNK         0.0813 
    119 H119       28.4955   35.9221    3.0389 H         1 UNK         0.0813 
    120 H120       31.9474   33.6528    3.9850 H         1 UNK         0.3038 
    121 H121       33.5994   35.0163    6.0726 H         1 UNK         0.0769 
    122 H122       34.3145   35.4710    3.6958 H         1 UNK         0.0811 
    123 H123       34.4630   33.7353    3.4205 H         1 UNK         0.0811 
    124 H124       35.5124   34.5414    4.5792 H         1 UNK         0.0811 
    125 H125       31.7108   32.5804    6.1556 H         1 UNK         0.3204 
    126 H126       31.5382   30.5506    6.9790 H         1 UNK         0.0748 
    127 H127       34.1966   31.0873    8.4075 H         1 UNK         0.0771 
    128 H128       32.6154   31.6230    8.9752 H         1 UNK         0.0771 
    129 H129       32.9795   29.9094    8.8773 H         1 UNK         0.0771 
    130 H130       32.8604   30.8110    4.3749 H         1 UNK         0.2980 
    131 H131       33.7753   29.6579    2.7861 H         1 UNK         0.0545 
    132 H132       35.5927   30.8569    5.0347 H         1 UNK         0.3459 
    133 H133       37.1396   30.1808    4.5820 H         1 UNK         0.3459 
    134 H134       33.9123   27.1798    2.7964 H         1 UNK         0.0616 
    135 H135       33.5976   27.1492    4.5103 H         1 UNK         0.0616 
    136 H136       31.9834   25.4395    4.0293 H         1 UNK         0.0634 
    137 H137       30.2896   25.8373    3.9044 H         1 UNK         0.0634 
@<TRIPOS>BOND
     1    1    2 1    
     2    1   72 1    
     3    1   73 1    
     4    1   74 1    
     5    2    3 2    
     6    2    4 am   BACKBONE|DICT|INTERRES
     7    4    5 1    
     8    4   75 1    
     9    5    6 1    
    10    5   35 1    
    11    5   76 1    
    12    6    7 1    
    13    6   77 1    
    14    6   78 1    
    15    7    8 1    
    16    8    9 1    
    17    8   79 1    
    18    8   80 1    
    19    9   10 ar   
    20    9   14 ar   
    21   10   11 ar   
    22   10   81 1    
    23   11   12 ar   
    24   11   71 1    
    25   12   13 ar   
    26   12   82 1    
    27   13   14 ar   
    28   13   15 1    
    29   14   83 1    
    30   15   16 1    
    31   15   84 1    
    32   15   85 1    
    33   16   17 1    
    34   17   18 1    
    35   17   86 1    
    36   17   87 1    
    37   18   19 1    
    38   18   37 1    
    39   18   88 1    
    40   19   20 am   BACKBONE|DICT|INTERRES
    41   19   89 1    
    42   20   21 2    
    43   20   22 1    
    44   22   23 1    
    45   22   24 1    
    46   22   90 1    
    47   23   91 1    
    48   23   92 1    
    49   23   93 1    
    50   24   25 am   BACKBONE|DICT|INTERRES
    51   24   94 1    
    52   25   26 2    
    53   25   27 1    
    54   27   28 1    
    55   27   29 1    
    56   27   95 1    
    57   28   96 1    
    58   28   97 1    
    59   28   98 1    
    60   29   30 am   BACKBONE|DICT|INTERRES
    61   29   99 1    
    62   30   31 2    
    63   30   32 1    
    64   32   33 1    
    65   32   34 1    
    66   32  100 1    
    67   33  101 1    
    68   33  102 1    
    69   33  103 1    
    70   34   35 am   BACKBONE|DICT|INTERRES
    71   34  104 1    
    72   35   36 2    
    73   37   38 2    
    74   37   39 am   BACKBONE|DICT|INTERRES
    75   39   40 1    
    76   39  105 1    
    77   40   41 1    
    78   40   42 1    
    79   40  106 1    
    80   41  107 1    
    81   41  108 1    
    82   41  109 1    
    83   42   43 2    
    84   42   44 am   BACKBONE|DICT|INTERRES
    85   44   45 1    
    86   44  110 1    
    87   45   46 1    
    88   45   47 1    
    89   45  111 1    
    90   46  112 1    
    91   46  113 1    
    92   46  114 1    
    93   47   48 2    
    94   47   49 am   BACKBONE|DICT|INTERRES
    95   49   50 1    
    96   49  115 1    
    97   50   51 1    
    98   50   52 1    
    99   50  116 1    
   100   51  117 1    
   101   51  118 1    
   102   51  119 1    
   103   52   53 2    
   104   52   54 am   BACKBONE|DICT|INTERRES
   105   54   55 1    
   106   54  120 1    
   107   55   56 1    
   108   55   57 1    
   109   55  121 1    
   110   56  122 1    
   111   56  123 1    
   112   56  124 1    
   113   57   58 2    
   114   57   59 am   BACKBONE|DICT|INTERRES
   115   59   60 1    
   116   59  125 1    
   117   60   61 1    
   118   60   62 1    
   119   60  126 1    
   120   61  127 1    
   121   61  128 1    
   122   61  129 1    
   123   62   63 2    
   124   62   64 am   BACKBONE|DICT|INTERRES
   125   64   65 1    
   126   64  130 1    
   127   65   66 1    
   128   65   69 1    
   129   65  131 1    
   130   66   67 am   BACKBONE|DICT|INTERRES
   131   66   68 2    
   132   67  132 1    
   133   67  133 1    
   134   69   70 1    
   135   69  134 1    
   136   69  135 1    
   137   70   71 1    
   138   71  136 1    
   139   71  137 1    
@<TRIPOS>SUBSTRUCTURE
     1 UNK         1 GROUP             0       ****    0 ROOT    
