@<TRIPOS>MOLECULE
3R136
137   139    1
SMALL
USER_CHARGES


@<TRIPOS>ATOM
      1 CA         28.3833   23.7203   -5.2280 C.3       0 UNK        -0.1979 
      2 C          28.1891   24.4685   -3.9179 C.2       0 UNK         0.4864 
      3 O          27.1347   25.0702   -3.7079 O.2       0 UNK        -0.5359 
      4 N          29.1932   24.4261   -3.0295 N.am      1 UNK        -0.4318 
      5 CA         29.1964   25.0860   -1.7159 C.3       1 UNK         0.0824 
      6 C6         30.5746   24.9923   -1.0138 C.3       12 UNK        -0.0944 
      7 S7         31.1451   23.2764   -0.7552 S.3       12 UNK        -0.2672 
      8 C8         32.3717   23.5043    0.5721 C.3       12 UNK         0.0333 
      9 C9         31.7902   23.7101    1.9716 C.ar      12 UNK        -0.0807 
     10 C10        32.4813   24.5315    2.8684 C.ar      12 UNK        -0.0894 
     11 C11        32.0674   24.6526    4.1975 C.ar      12 UNK        -0.0804 
     12 C12        30.9325   23.9573    4.6244 C.ar      12 UNK        -0.0824 
     13 C13        30.2081   23.1549    3.7367 C.ar      12 UNK        -0.0762 
     14 C14        30.6457   23.0293    2.4124 C.ar      12 UNK        -0.0782 
     15 C15        28.9833   22.3899    4.2316 C.3       12 UNK         0.0230 
     16 S16        27.4017   23.1840    3.7809 S.3       12 UNK        -0.2608 
     17 C17        27.5944   24.8593    4.4768 C.3       12 UNK        -0.0989 
     18 CA         28.0262   25.8444    3.3597 C.3       5 UNK         0.0716 
     19 N          26.9359   26.2658    2.4774 N.am      5 UNK        -0.4135 
     20 C          25.8860   27.0438    2.7748 C.2       4 UNK         0.5031 
     21 O          25.6186   27.4408    3.9092 O.2       4 UNK        -0.5229 
     22 CA         24.9773   27.4742    1.6117 C.3       4 UNK         0.0329 
     23 CB         25.4946   28.7814    0.9869 C.3       4 UNK        -0.2001 
     24 N          24.8602   26.4525    0.5657 N.am      4 UNK        -0.4303 
     25 C          23.7033   26.0452    0.0220 C.2       3 UNK         0.5044 
     26 O          22.6004   26.4867    0.3484 O.2       3 UNK        -0.5152 
     27 CA         23.7681   24.9721   -1.0849 C.3       3 UNK         0.0319 
     28 CB         23.6656   25.6274   -2.4716 C.3       3 UNK        -0.2001 
     29 N          24.9777   24.1492   -1.0393 N.am      3 UNK        -0.4354 
     30 C          25.2738   23.2774   -0.0646 C.2       2 UNK         0.4964 
     31 O          24.4962   22.9852    0.8441 O.2       2 UNK        -0.5047 
     32 CA         26.6750   22.6356   -0.0835 C.3       2 UNK         0.0288 
     33 CB         26.5901   21.1694   -0.5377 C.3       2 UNK        -0.2113 
     34 N          27.6785   23.3263   -0.9018 N.am      2 UNK        -0.4145 
     35 C          28.0690   24.6048   -0.7819 C.2       1 UNK         0.5006 
     36 O          27.5611   25.4065    0.0017 O.2       1 UNK        -0.5103 
     37 C          28.8213   27.0604    3.8647 C.2       5 UNK         0.5055 
     38 O          28.6900   27.4686    5.0200 O.2       5 UNK        -0.5220 
     39 N          29.6277   27.6148    2.9552 N.am      6 UNK        -0.4450 
     40 CA         30.5990   28.6693    3.1973 C.3       6 UNK         0.0367 
     41 CB         29.9505   30.0397    2.9471 C.3       6 UNK        -0.1929 
     42 C          31.7769   28.4257    2.2480 C.2       6 UNK         0.5070 
     43 O          31.5643   27.9291    1.1388 O.2       6 UNK        -0.5237 
     44 N          32.9866   28.7879    2.6874 N.am      7 UNK        -0.4739 
     45 CA         34.1989   28.7732    1.8649 C.3       7 UNK         0.0276 
     46 CB         35.4219   28.5275    2.7638 C.3       7 UNK        -0.1927 
     47 C          34.3496   30.0922    1.0887 C.2       7 UNK         0.5013 
     48 O          34.7719   30.0742   -0.0679 O.2       7 UNK        -0.5193 
     49 N          33.9804   31.2015    1.7390 N.am      8 UNK        -0.4253 
     50 CA         33.8891   32.5440    1.1737 C.3       8 UNK         0.0242 
     51 CB         35.1128   33.3727    1.6178 C.3       8 UNK        -0.2000 
     52 C          32.5315   33.1132    1.6105 C.2       8 UNK         0.4948 
     53 O          31.5038   32.5546    1.2263 O.2       8 UNK        -0.5275 
     54 N          32.5315   34.1688    2.4371 N.am      9 UNK        -0.4246 
     55 CA         31.3350   34.6858    3.1161 C.3       9 UNK         0.0261 
     56 CB         31.6212   36.1043    3.6357 C.3       9 UNK        -0.1959 
     57 C          30.8618   33.7752    4.2687 C.2       9 UNK         0.5033 
     58 O          29.6895   33.8250    4.6422 O.2       9 UNK        -0.5390 
     59 N          31.7806   32.9620    4.7993 N.am      10 UNK        -0.4215 
     60 CA         31.5827   31.9330    5.8136 C.3       10 UNK         0.0240 
     61 CB         31.6877   32.5625    7.2162 C.3       10 UNK        -0.1982 
     62 C          32.6467   30.8486    5.5805 C.2       10 UNK         0.4970 
     63 O          33.4140   30.9463    4.6165 O.2       10 UNK        -0.4916 
     64 N          32.6785   29.8269    6.4424 N.am      11 UNK        -0.4279 
     65 CA         33.7307   28.7927    6.4551 C.3       11 UNK         0.1003 
     66 C          35.0781   29.2570    7.0840 C.2       11 UNK         0.5709 
     67 N          35.1517   30.4135    7.7326 N.am      11 UNK        -0.7358 
     68 O          36.0811   28.5577    6.9668 O.2       11 UNK        -0.4999 
     69 C69        33.2364   27.4725    7.1002 C.3       12 UNK        -0.0954 
     70 S70        31.9218   26.6812    6.1185 S.3       12 UNK        -0.2268 
     71 C71        32.9003   25.4657    5.1822 C.3       12 UNK         0.0203 
     72 H72        27.6106   22.9607   -5.3439 H         1 UNK         0.0888 
     73 H73        28.3112   24.4110   -6.0677 H         1 UNK         0.0888 
     74 H74        29.3541   23.2274   -5.2765 H         1 UNK         0.0888 
     75 H75        30.0313   23.9063   -3.2509 H         1 UNK         0.3017 
     76 H76        29.0001   26.1441   -1.9026 H         1 UNK         0.0873 
     77 H77        30.5500   25.5133   -0.0539 H         1 UNK         0.0745 
     78 H78        31.3265   25.5127   -1.6091 H         1 UNK         0.0745 
     79 H79        33.0208   24.3385    0.3001 H         1 UNK         0.0705 
     80 H80        33.0085   22.6193    0.6008 H         1 UNK         0.0705 
     81 H81        33.3755   25.0448    2.5409 H         1 UNK         0.1334 
     82 H82        30.6210   24.0342    5.6572 H         1 UNK         0.1417 
     83 H83        30.1071   22.3804    1.7354 H         1 UNK         0.1562 
     84 H84        29.0214   22.2708    5.3156 H         1 UNK         0.0748 
     85 H85        28.9964   21.3799    3.8193 H         1 UNK         0.0748 
     86 H86        28.3232   24.8219    5.2876 H         1 UNK         0.0940 
     87 H87        26.6574   25.1711    4.9398 H         1 UNK         0.0940 
     88 H88        28.7219   25.3117    2.7090 H         1 UNK         0.0703 
     89 H89        27.0819   25.9989    1.5048 H         1 UNK         0.3081 
     90 H90        23.9962   27.6737    2.0482 H         1 UNK         0.0719 
     91 H91        25.5979   29.5626    1.7414 H         1 UNK         0.0809 
     92 H92        26.4711   28.6464    0.5196 H         1 UNK         0.0809 
     93 H93        24.8081   29.1544    0.2267 H         1 UNK         0.0809 
     94 H94        25.7214   26.0283    0.2368 H         1 UNK         0.2990 
     95 H95        22.9071   24.3135   -0.9528 H         1 UNK         0.0690 
     96 H96        24.5158   26.2811   -2.6721 H         1 UNK         0.0788 
     97 H97        22.7613   26.2322   -2.5535 H         1 UNK         0.0788 
     98 H98        23.6261   24.8784   -3.2628 H         1 UNK         0.0788 
     99 H99        25.6716   24.3247   -1.7545 H         1 UNK         0.2993 
    100 H100       27.0397   22.6524    0.9442 H         1 UNK         0.0949 
    101 H101       26.2652   21.0879   -1.5758 H         1 UNK         0.0767 
    102 H102       27.5541   20.6684   -0.4450 H         1 UNK         0.0767 
    103 H103       25.8786   20.6108    0.0723 H         1 UNK         0.0767 
    104 H104       28.1617   22.7612   -1.5849 H         1 UNK         0.3013 
    105 H105       29.7049   27.2046    2.0322 H         1 UNK         0.3121 
    106 H106       30.9527   28.6168    4.2274 H         1 UNK         0.0774 
    107 H107       30.6682   30.8433    3.1053 H         1 UNK         0.0815 
    108 H108       29.5829   30.1317    1.9243 H         1 UNK         0.0815 
    109 H109       29.1129   30.2137    3.6228 H         1 UNK         0.0815 
    110 H110       33.0676   29.2383    3.5908 H         1 UNK         0.2987 
    111 H111       34.1395   27.9587    1.1390 H         1 UNK         0.0949 
    112 H112       36.3374   28.4916    2.1718 H         1 UNK         0.0806 
    113 H113       35.5465   29.3158    3.5075 H         1 UNK         0.0806 
    114 H114       35.3414   27.5773    3.2919 H         1 UNK         0.0806 
    115 H115       33.6555   31.1028    2.6957 H         1 UNK         0.3010 
    116 H116       33.8746   32.4963    0.0827 H         1 UNK         0.0829 
    117 H117       36.0343   32.9324    1.2360 H         1 UNK         0.0813 
    118 H118       35.0658   34.3912    1.2296 H         1 UNK         0.0813 
    119 H119       35.2052   33.4248    2.7034 H         1 UNK         0.0813 
    120 H120       33.4155   34.5922    2.6823 H         1 UNK         0.3038 
    121 H121       30.5218   34.7453    2.3893 H         1 UNK         0.0769 
    122 H122       31.8949   36.7774    2.8229 H         1 UNK         0.0811 
    123 H123       30.7396   36.5265    4.1203 H         1 UNK         0.0811 
    124 H124       32.4299   36.1128    4.3676 H         1 UNK         0.0811 
    125 H125       32.7069   32.9503    4.3929 H         1 UNK         0.3204 
    126 H126       30.5991   31.4771    5.6835 H         1 UNK         0.0748 
    127 H127       30.9563   33.3610    7.3443 H         1 UNK         0.0771 
    128 H128       31.4962   31.8301    8.0010 H         1 UNK         0.0771 
    129 H129       32.6759   32.9885    7.3942 H         1 UNK         0.0771 
    130 H130       32.0093   29.7879    7.1972 H         1 UNK         0.2980 
    131 H131       33.9785   28.5593    5.4188 H         1 UNK         0.0545 
    132 H132       36.0343   30.6992    8.1265 H         1 UNK         0.3459 
    133 H133       34.3391   30.9966    7.8423 H         1 UNK         0.3459 
    134 H134       34.0543   26.7590    7.2187 H         1 UNK         0.0616 
    135 H135       32.8542   27.6591    8.1051 H         1 UNK         0.0616 
    136 H136       33.3819   24.7801    5.8806 H         1 UNK         0.0634 
    137 H137       33.7000   25.9949    4.6614 H         1 UNK         0.0634 
@<TRIPOS>BOND
     1    1    2 1    
     2    1   72 1    
     3    1   73 1    
     4    1   74 1    
     5    2    3 2    
     6    2    4 am   BACKBONE|DICT|INTERRES
     7    4    5 1    
     8    4   75 1    
     9    5    6 1    
    10    5   35 1    
    11    5   76 1    
    12    6    7 1    
    13    6   77 1    
    14    6   78 1    
    15    7    8 1    
    16    8    9 1    
    17    8   79 1    
    18    8   80 1    
    19    9   10 ar   
    20    9   14 ar   
    21   10   11 ar   
    22   10   81 1    
    23   11   12 ar   
    24   11   71 1    
    25   12   13 ar   
    26   12   82 1    
    27   13   14 ar   
    28   13   15 1    
    29   14   83 1    
    30   15   16 1    
    31   15   84 1    
    32   15   85 1    
    33   16   17 1    
    34   17   18 1    
    35   17   86 1    
    36   17   87 1    
    37   18   19 1    
    38   18   37 1    
    39   18   88 1    
    40   19   20 am   BACKBONE|DICT|INTERRES
    41   19   89 1    
    42   20   21 2    
    43   20   22 1    
    44   22   23 1    
    45   22   24 1    
    46   22   90 1    
    47   23   91 1    
    48   23   92 1    
    49   23   93 1    
    50   24   25 am   BACKBONE|DICT|INTERRES
    51   24   94 1    
    52   25   26 2    
    53   25   27 1    
    54   27   28 1    
    55   27   29 1    
    56   27   95 1    
    57   28   96 1    
    58   28   97 1    
    59   28   98 1    
    60   29   30 am   BACKBONE|DICT|INTERRES
    61   29   99 1    
    62   30   31 2    
    63   30   32 1    
    64   32   33 1    
    65   32   34 1    
    66   32  100 1    
    67   33  101 1    
    68   33  102 1    
    69   33  103 1    
    70   34   35 am   BACKBONE|DICT|INTERRES
    71   34  104 1    
    72   35   36 2    
    73   37   38 2    
    74   37   39 am   BACKBONE|DICT|INTERRES
    75   39   40 1    
    76   39  105 1    
    77   40   41 1    
    78   40   42 1    
    79   40  106 1    
    80   41  107 1    
    81   41  108 1    
    82   41  109 1    
    83   42   43 2    
    84   42   44 am   BACKBONE|DICT|INTERRES
    85   44   45 1    
    86   44  110 1    
    87   45   46 1    
    88   45   47 1    
    89   45  111 1    
    90   46  112 1    
    91   46  113 1    
    92   46  114 1    
    93   47   48 2    
    94   47   49 am   BACKBONE|DICT|INTERRES
    95   49   50 1    
    96   49  115 1    
    97   50   51 1    
    98   50   52 1    
    99   50  116 1    
   100   51  117 1    
   101   51  118 1    
   102   51  119 1    
   103   52   53 2    
   104   52   54 am   BACKBONE|DICT|INTERRES
   105   54   55 1    
   106   54  120 1    
   107   55   56 1    
   108   55   57 1    
   109   55  121 1    
   110   56  122 1    
   111   56  123 1    
   112   56  124 1    
   113   57   58 2    
   114   57   59 am   BACKBONE|DICT|INTERRES
   115   59   60 1    
   116   59  125 1    
   117   60   61 1    
   118   60   62 1    
   119   60  126 1    
   120   61  127 1    
   121   61  128 1    
   122   61  129 1    
   123   62   63 2    
   124   62   64 am   BACKBONE|DICT|INTERRES
   125   64   65 1    
   126   64  130 1    
   127   65   66 1    
   128   65   69 1    
   129   65  131 1    
   130   66   67 am   BACKBONE|DICT|INTERRES
   131   66   68 2    
   132   67  132 1    
   133   67  133 1    
   134   69   70 1    
   135   69  134 1    
   136   69  135 1    
   137   70   71 1    
   138   71  136 1    
   139   71  137 1    
@<TRIPOS>SUBSTRUCTURE
     1 UNK         1 GROUP             0       ****    0 ROOT    
