@<TRIPOS>MOLECULE
3R136
137   139    1
SMALL
USER_CHARGES


@<TRIPOS>ATOM
      1 CA         31.5646   23.0777    6.3388 C.3       0 UNK        -0.1979 
      2 C          30.3276   22.3223    5.8780 C.2       0 UNK         0.4864 
      3 O          29.5911   21.7872    6.7072 O.2       0 UNK        -0.5359 
      4 N          30.0947   22.2737    4.5602 N.am      1 UNK        -0.4318 
      5 CA         28.9627   21.5838    3.9281 C.3       1 UNK         0.0824 
      6 C6         29.3200   21.1176    2.4897 C.3       12 UNK        -0.0944 
      7 S7         29.7073   22.4936    1.3521 S.3       12 UNK        -0.2672 
      8 C8         31.3944   22.1006    0.7946 C.3       12 UNK         0.0333 
      9 C9         32.0448   23.3350    0.1880 C.ar      12 UNK        -0.0807 
     10 C10        33.0017   24.0503    0.9136 C.ar      12 UNK        -0.0894 
     11 C11        33.5382   25.2410    0.4085 C.ar      12 UNK        -0.0804 
     12 C12        33.1331   25.6861   -0.8534 C.ar      12 UNK        -0.0824 
     13 C13        32.1854   24.9775   -1.5973 C.ar      12 UNK        -0.0762 
     14 C14        31.6549   23.7924   -1.0753 C.ar      12 UNK        -0.0782 
     15 C15        31.7318   25.5092   -2.9527 C.3       12 UNK         0.0230 
     16 S16        29.9285   25.7670   -3.0074 S.3       12 UNK        -0.2608 
     17 C17        29.7535   27.2223   -4.1058 C.3       12 UNK        -0.0989 
     18 CA         29.1930   28.4797   -3.3850 C.3       5 UNK         0.0716 
     19 N          28.0005   28.1426   -2.6018 N.am      5 UNK        -0.4135 
     20 C          27.0840   28.9846   -2.1053 C.2       4 UNK         0.5031 
     21 O          27.1046   30.2031   -2.2745 O.2       4 UNK        -0.5229 
     22 CA         25.9811   28.3448   -1.2405 C.3       4 UNK         0.0329 
     23 CB         24.7825   27.9322   -2.1095 C.3       4 UNK        -0.2001 
     24 N          26.4909   27.1740   -0.5166 N.am      4 UNK        -0.4303 
     25 C          27.2314   27.2562    0.5960 C.2       3 UNK         0.5044 
     26 O          27.3875   28.2921    1.2424 O.2       3 UNK        -0.5152 
     27 CA         28.0090   25.9942    0.9953 C.3       3 UNK         0.0319 
     28 CB         29.5170   26.2454    0.8235 C.3       3 UNK        -0.2001 
     29 N          27.7682   25.5870    2.3753 N.am      3 UNK        -0.4354 
     30 C          26.5994   25.2002    2.9014 C.2       2 UNK         0.4964 
     31 O          25.5315   25.1770    2.2862 O.2       2 UNK        -0.5047 
     32 CA         26.6830   24.7042    4.3561 C.3       2 UNK         0.0288 
     33 CB         25.3233   24.2891    4.9603 C.3       2 UNK        -0.2113 
     34 N          27.6967   23.6458    4.4637 N.am      2 UNK        -0.4145 
     35 C          27.6459   22.4000    3.9604 C.2       1 UNK         0.5006 
     36 O          26.6239   21.8850    3.5027 O.2       1 UNK        -0.5103 
     37 C          30.2857   29.2137   -2.5731 C.2       5 UNK         0.5055 
     38 O          31.1936   29.7861   -3.1780 O.2       5 UNK        -0.5220 
     39 N          30.1852   29.1998   -1.2384 N.am      6 UNK        -0.4450 
     40 CA         31.0757   29.8901   -0.3093 C.3       6 UNK         0.0367 
     41 CB         32.2846   29.0007    0.0332 C.3       6 UNK        -0.1929 
     42 C          30.2671   30.3278    0.9185 C.2       6 UNK         0.5070 
     43 O          30.6221   29.9946    2.0498 O.2       6 UNK        -0.5237 
     44 N          29.1659   31.0450    0.6593 N.am      7 UNK        -0.4739 
     45 CA         28.2864   31.6147    1.6809 C.3       7 UNK         0.0276 
     46 CB         26.9923   32.1011    1.0085 C.3       7 UNK        -0.1927 
     47 C          28.9684   32.7647    2.4434 C.2       7 UNK         0.5013 
     48 O          29.8198   33.4539    1.8748 O.2       7 UNK        -0.5193 
     49 N          28.5556   32.9583    3.7055 N.am      8 UNK        -0.4253 
     50 CA         29.0912   33.9334    4.6686 C.3       8 UNK         0.0242 
     51 CB         28.7858   35.3808    4.2242 C.3       8 UNK        -0.2000 
     52 C          30.5834   33.6974    4.9858 C.2       8 UNK         0.4948 
     53 O          31.3585   34.6506    5.0894 O.2       8 UNK        -0.5275 
     54 N          30.9512   32.4213    5.1366 N.am      9 UNK        -0.4246 
     55 CA         32.2865   31.9320    5.4601 C.3       9 UNK         0.0261 
     56 CB         33.0983   31.7529    4.1624 C.3       9 UNK        -0.1959 
     57 C          32.1379   30.6079    6.2212 C.2       9 UNK         0.5033 
     58 O          31.0242   30.0839    6.3280 O.2       9 UNK        -0.5390 
     59 N          33.2635   30.0730    6.7154 N.am      10 UNK        -0.4215 
     60 CA         33.3501   28.8318    7.5002 C.3       10 UNK         0.0240 
     61 CB         34.8108   28.6042    7.9235 C.3       10 UNK        -0.1982 
     62 C          32.7933   27.5741    6.8028 C.2       10 UNK         0.4970 
     63 O          32.3977   26.6334    7.4923 O.2       10 UNK        -0.4916 
     64 N          32.7555   27.5854    5.4649 N.am      11 UNK        -0.4279 
     65 CA         32.0946   26.5692    4.6358 C.3       11 UNK         0.1003 
     66 C          30.5402   26.5756    4.7148 C.2       11 UNK         0.5709 
     67 N          29.8933   27.6042    5.2496 N.am      11 UNK        -0.7358 
     68 O          29.9096   25.6058    4.2988 O.2       11 UNK        -0.4999 
     69 C69        32.5814   26.6405    3.1680 C.3       12 UNK        -0.0954 
     70 S70        34.3080   26.0754    3.0098 S.3       12 UNK        -0.2268 
     71 C71        34.5508   26.0717    1.1987 C.3       12 UNK         0.0203 
     72 H72        32.2529   23.2643    5.5148 H         1 UNK         0.0888 
     73 H73        31.2803   24.0344    6.7767 H         1 UNK         0.0888 
     74 H74        32.0980   22.5022    7.0949 H         1 UNK         0.0888 
     75 H75        30.7094   22.7602    3.9225 H         1 UNK         0.3017 
     76 H76        28.7593   20.6809    4.5083 H         1 UNK         0.0873 
     77 H77        30.1646   20.4282    2.5292 H         1 UNK         0.0745 
     78 H78        28.4987   20.5412    2.0595 H         1 UNK         0.0745 
     79 H79        31.9850   21.7345    1.6358 H         1 UNK         0.0705 
     80 H80        31.3588   21.2944    0.0605 H         1 UNK         0.0705 
     81 H81        33.3031   23.6961    1.8893 H         1 UNK         0.1334 
     82 H82        33.5513   26.5982   -1.2550 H         1 UNK         0.1417 
     83 H83        30.9069   23.2473   -1.6349 H         1 UNK         0.1562 
     84 H84        32.0193   24.8062   -3.7355 H         1 UNK         0.0748 
     85 H85        32.2401   26.4485   -3.1759 H         1 UNK         0.0748 
     86 H86        30.6957   27.4410   -4.6123 H         1 UNK         0.0940 
     87 H87        29.0658   26.9380   -4.9039 H         1 UNK         0.0940 
     88 H88        28.8762   29.1847   -4.1566 H         1 UNK         0.0703 
     89 H89        27.8968   27.1568   -2.4113 H         1 UNK         0.3081 
     90 H90        25.6393   29.0920   -0.5208 H         1 UNK         0.0719 
     91 H91        25.0570   27.1863   -2.8565 H         1 UNK         0.0809 
     92 H92        23.9775   27.5184   -1.5018 H         1 UNK         0.0809 
     93 H93        24.3747   28.7924   -2.6425 H         1 UNK         0.0809 
     94 H94        26.3646   26.2722   -0.9544 H         1 UNK         0.2990 
     95 H95        27.7185   25.1639    0.3485 H         1 UNK         0.0690 
     96 H96        30.1016   25.3620    1.0732 H         1 UNK         0.0788 
     97 H97        29.8637   27.0605    1.4607 H         1 UNK         0.0788 
     98 H98        29.7627   26.5082   -0.2039 H         1 UNK         0.0788 
     99 H99        28.5837   25.5786    2.9821 H         1 UNK         0.2993 
    100 H100       27.0550   25.5432    4.9464 H         1 UNK         0.0949 
    101 H101       25.4389   23.9179    5.9786 H         1 UNK         0.0767 
    102 H102       24.6447   25.1420    4.9997 H         1 UNK         0.0767 
    103 H103       24.8281   23.5151    4.3739 H         1 UNK         0.0767 
    104 H104       28.6079   23.9725    4.7638 H         1 UNK         0.3013 
    105 H105       29.3889   28.7427   -0.8172 H         1 UNK         0.3121 
    106 H106       31.4476   30.8066   -0.7726 H         1 UNK         0.0774 
    107 H107       31.9704   28.0392    0.4382 H         1 UNK         0.0815 
    108 H108       32.9283   29.4769    0.7738 H         1 UNK         0.0815 
    109 H109       32.8938   28.8150   -0.8505 H         1 UNK         0.0815 
    110 H110       28.9535   31.2796   -0.2998 H         1 UNK         0.2987 
    111 H111       28.0384   30.8205    2.3893 H         1 UNK         0.0949 
    112 H112       27.1879   32.8864    0.2771 H         1 UNK         0.0806 
    113 H113       26.4833   31.2844    0.4962 H         1 UNK         0.0806 
    114 H114       26.2951   32.5053    1.7435 H         1 UNK         0.0806 
    115 H115       27.8379   32.3448    4.0672 H         1 UNK         0.3010 
    116 H116       28.5571   33.7625    5.6046 H         1 UNK         0.0829 
    117 H117       27.7234   35.5189    4.0236 H         1 UNK         0.0813 
    118 H118       29.0631   36.0939    5.0016 H         1 UNK         0.0813 
    119 H119       29.3361   35.6548    3.3237 H         1 UNK         0.0813 
    120 H120       30.2500   31.6912    5.1035 H         1 UNK         0.3038 
    121 H121       32.7873   32.6471    6.1162 H         1 UNK         0.0769 
    122 H122       32.6509   31.0024    3.5096 H         1 UNK         0.0811 
    123 H123       34.1217   31.4395    4.3699 H         1 UNK         0.0811 
    124 H124       33.1569   32.6856    3.6009 H         1 UNK         0.0811 
    125 H125       34.1312   30.5710    6.5748 H         1 UNK         0.3204 
    126 H126       32.7534   28.9814    8.4024 H         1 UNK         0.0748 
    127 H127       34.9056   27.7051    8.5345 H         1 UNK         0.0771 
    128 H128       35.4665   28.4815    7.0603 H         1 UNK         0.0771 
    129 H129       35.1878   29.4365    8.5183 H         1 UNK         0.0771 
    130 H130       33.1058   28.3958    4.9787 H         1 UNK         0.2980 
    131 H131       32.3918   25.5971    5.0298 H         1 UNK         0.0545 
    132 H132       30.3932   28.4142    5.6041 H         1 UNK         0.3459 
    133 H133       28.8891   27.5848    5.2964 H         1 UNK         0.3459 
    134 H134       31.9616   26.0106    2.5304 H         1 UNK         0.0616 
    135 H135       32.4923   27.6558    2.7786 H         1 UNK         0.0616 
    136 H136       34.5338   27.1084    0.8592 H         1 UNK         0.0634 
    137 H137       35.5509   25.6933    0.9848 H         1 UNK         0.0634 
@<TRIPOS>BOND
     1    1    2 1    
     2    1   72 1    
     3    1   73 1    
     4    1   74 1    
     5    2    3 2    
     6    2    4 am   BACKBONE|DICT|INTERRES
     7    4    5 1    
     8    4   75 1    
     9    5    6 1    
    10    5   35 1    
    11    5   76 1    
    12    6    7 1    
    13    6   77 1    
    14    6   78 1    
    15    7    8 1    
    16    8    9 1    
    17    8   79 1    
    18    8   80 1    
    19    9   10 ar   
    20    9   14 ar   
    21   10   11 ar   
    22   10   81 1    
    23   11   12 ar   
    24   11   71 1    
    25   12   13 ar   
    26   12   82 1    
    27   13   14 ar   
    28   13   15 1    
    29   14   83 1    
    30   15   16 1    
    31   15   84 1    
    32   15   85 1    
    33   16   17 1    
    34   17   18 1    
    35   17   86 1    
    36   17   87 1    
    37   18   19 1    
    38   18   37 1    
    39   18   88 1    
    40   19   20 am   BACKBONE|DICT|INTERRES
    41   19   89 1    
    42   20   21 2    
    43   20   22 1    
    44   22   23 1    
    45   22   24 1    
    46   22   90 1    
    47   23   91 1    
    48   23   92 1    
    49   23   93 1    
    50   24   25 am   BACKBONE|DICT|INTERRES
    51   24   94 1    
    52   25   26 2    
    53   25   27 1    
    54   27   28 1    
    55   27   29 1    
    56   27   95 1    
    57   28   96 1    
    58   28   97 1    
    59   28   98 1    
    60   29   30 am   BACKBONE|DICT|INTERRES
    61   29   99 1    
    62   30   31 2    
    63   30   32 1    
    64   32   33 1    
    65   32   34 1    
    66   32  100 1    
    67   33  101 1    
    68   33  102 1    
    69   33  103 1    
    70   34   35 am   BACKBONE|DICT|INTERRES
    71   34  104 1    
    72   35   36 2    
    73   37   38 2    
    74   37   39 am   BACKBONE|DICT|INTERRES
    75   39   40 1    
    76   39  105 1    
    77   40   41 1    
    78   40   42 1    
    79   40  106 1    
    80   41  107 1    
    81   41  108 1    
    82   41  109 1    
    83   42   43 2    
    84   42   44 am   BACKBONE|DICT|INTERRES
    85   44   45 1    
    86   44  110 1    
    87   45   46 1    
    88   45   47 1    
    89   45  111 1    
    90   46  112 1    
    91   46  113 1    
    92   46  114 1    
    93   47   48 2    
    94   47   49 am   BACKBONE|DICT|INTERRES
    95   49   50 1    
    96   49  115 1    
    97   50   51 1    
    98   50   52 1    
    99   50  116 1    
   100   51  117 1    
   101   51  118 1    
   102   51  119 1    
   103   52   53 2    
   104   52   54 am   BACKBONE|DICT|INTERRES
   105   54   55 1    
   106   54  120 1    
   107   55   56 1    
   108   55   57 1    
   109   55  121 1    
   110   56  122 1    
   111   56  123 1    
   112   56  124 1    
   113   57   58 2    
   114   57   59 am   BACKBONE|DICT|INTERRES
   115   59   60 1    
   116   59  125 1    
   117   60   61 1    
   118   60   62 1    
   119   60  126 1    
   120   61  127 1    
   121   61  128 1    
   122   61  129 1    
   123   62   63 2    
   124   62   64 am   BACKBONE|DICT|INTERRES
   125   64   65 1    
   126   64  130 1    
   127   65   66 1    
   128   65   69 1    
   129   65  131 1    
   130   66   67 am   BACKBONE|DICT|INTERRES
   131   66   68 2    
   132   67  132 1    
   133   67  133 1    
   134   69   70 1    
   135   69  134 1    
   136   69  135 1    
   137   70   71 1    
   138   71  136 1    
   139   71  137 1    
@<TRIPOS>SUBSTRUCTURE
     1 UNK         1 GROUP             0       ****    0 ROOT    
