@<TRIPOS>MOLECULE
3R136
137   139    1
SMALL
USER_CHARGES


@<TRIPOS>ATOM
      1 CA         29.8984   21.0360   -3.8426 C.3       0 UNK        -0.1979 
      2 C          29.2079   21.8236   -2.7396 C.2       0 UNK         0.4864 
      3 O          29.1446   21.3525   -1.6034 O.2       0 UNK        -0.5359 
      4 N          28.6767   23.0094   -3.0710 N.am      1 UNK        -0.4318 
      5 CA         28.0102   23.9964   -2.2001 C.3       1 UNK         0.0824 
      6 C6         28.8884   24.5159   -1.0317 C.3       12 UNK        -0.0944 
      7 S7         30.5125   25.1621   -1.5562 S.3       12 UNK        -0.2672 
      8 C8         31.6490   24.0374   -0.6822 C.3       12 UNK         0.0333 
      9 C9         31.7286   24.3550    0.8051 C.ar      12 UNK        -0.0807 
     10 C10        32.6011   25.3469    1.2616 C.ar      12 UNK        -0.0894 
     11 C11        32.6930   25.6427    2.6251 C.ar      12 UNK        -0.0804 
     12 C12        31.8980   24.9395    3.5353 C.ar      12 UNK        -0.0824 
     13 C13        31.0071   23.9582    3.0894 C.ar      12 UNK        -0.0762 
     14 C14        30.9411   23.6569    1.7262 C.ar      12 UNK        -0.0782 
     15 C15        30.1030   23.2319    4.0753 C.3       12 UNK         0.0230 
     16 S16        28.3903   23.8556    4.0082 S.3       12 UNK        -0.2608 
     17 C17        28.5913   25.5714    4.5968 C.3       12 UNK        -0.0989 
     18 CA         28.5805   26.5956    3.4322 C.3       5 UNK         0.0716 
     19 N          27.2915   26.6115    2.7297 N.am      5 UNK        -0.4135 
     20 C          27.0689   27.0837    1.4975 C.2       4 UNK         0.5031 
     21 O          27.9586   27.5674    0.7928 O.2       4 UNK        -0.5229 
     22 CA         25.6170   27.0368    0.9816 C.3       4 UNK         0.0329 
     23 CB         25.4943   27.5349   -0.4709 C.3       4 UNK        -0.2001 
     24 N          25.0060   25.7066    1.0911 N.am      4 UNK        -0.4303 
     25 C          24.4920   25.1904    2.2187 C.2       3 UNK         0.5044 
     26 O          24.5769   25.7529    3.3117 O.2       3 UNK        -0.5152 
     27 CA         23.7430   23.8466    2.1359 C.3       3 UNK         0.0319 
     28 CB         22.2244   24.0804    2.1935 C.3       3 UNK        -0.2001 
     29 N          24.0564   23.0715    0.9348 N.am      3 UNK        -0.4354 
     30 C          25.1629   22.3350    0.7776 C.2       2 UNK         0.4964 
     31 O          26.0212   22.1954    1.6488 O.2       2 UNK        -0.5047 
     32 CA         25.3725   21.6522   -0.5865 C.3       2 UNK         0.0288 
     33 CB         24.1162   21.6110   -1.4884 C.3       2 UNK        -0.2113 
     34 N          26.5059   22.2636   -1.2848 N.am      2 UNK        -0.4145 
     35 C          26.6384   23.5463   -1.6503 C.2       1 UNK         0.5006 
     36 O          25.7359   24.3788   -1.5432 O.2       1 UNK        -0.5103 
     37 C          28.9871   28.0138    3.8935 C.2       5 UNK         0.5055 
     38 O          29.1314   28.2650    5.0915 O.2       5 UNK        -0.5220 
     39 N          29.1492   28.9237    2.9284 N.am      6 UNK        -0.4450 
     40 CA         29.5713   30.3090    3.1245 C.3       6 UNK         0.0367 
     41 CB         28.3332   31.2206    3.1862 C.3       6 UNK        -0.1929 
     42 C          30.5673   30.7767    2.0519 C.2       6 UNK         0.5070 
     43 O          30.9512   31.9468    2.0767 O.2       6 UNK        -0.5237 
     44 N          30.9814   29.8722    1.1506 N.am      7 UNK        -0.4739 
     45 CA         31.8163   30.1319   -0.0284 C.3       7 UNK         0.0276 
     46 CB         31.9782   28.8225   -0.8168 C.3       7 UNK        -0.1927 
     47 C          33.1943   30.7550    0.2598 C.2       7 UNK         0.5013 
     48 O          33.7050   31.4919   -0.5836 O.2       7 UNK        -0.5193 
     49 N          33.7564   30.4844    1.4453 N.am      8 UNK        -0.4253 
     50 CA         35.0130   31.0638    1.9336 C.3       8 UNK         0.0242 
     51 CB         35.7310   30.0319    2.8238 C.3       8 UNK        -0.2000 
     52 C          34.8097   32.4059    2.6700 C.2       8 UNK         0.4948 
     53 O          35.6782   32.7886    3.4548 O.2       8 UNK        -0.5275 
     54 N          33.6774   33.0835    2.4194 N.am      9 UNK        -0.4246 
     55 CA         33.1815   34.2964    3.0794 C.3       9 UNK         0.0261 
     56 CB         34.1528   35.4856    2.9103 C.3       9 UNK        -0.1959 
     57 C          32.8148   33.9979    4.5426 C.2       9 UNK         0.5033 
     58 O          33.4451   34.5297    5.4583 O.2       9 UNK        -0.5390 
     59 N          31.8041   33.1286    4.7020 N.am      10 UNK        -0.4215 
     60 CA         31.3141   32.5162    5.9451 C.3       10 UNK         0.0240 
     61 CB         30.9263   33.5648    7.0099 C.3       10 UNK        -0.1982 
     62 C          32.3213   31.4764    6.4666 C.2       10 UNK         0.4970 
     63 O          33.2493   31.8217    7.1998 O.2       10 UNK        -0.4916 
     64 N          32.1311   30.2228    6.0389 N.am      11 UNK        -0.4279 
     65 CA         32.9766   29.0685    6.3742 C.3       11 UNK         0.1003 
     66 C          32.9357   28.7053    7.8842 C.2       11 UNK         0.5709 
     67 N          34.0265   28.1774    8.4231 N.am      11 UNK        -0.7358 
     68 O          31.9182   28.8581    8.5581 O.2       11 UNK        -0.4999 
     69 C69        32.6078   27.8378    5.5048 C.3       12 UNK        -0.0954 
     70 S70        32.7620   28.1833    3.7181 S.3       12 UNK        -0.2268 
     71 C71        33.6534   26.7195    3.1083 C.3       12 UNK         0.0203 
     72 H72        29.4098   20.0714   -3.9773 H         1 UNK         0.0888 
     73 H73        29.8776   21.5635   -4.7961 H         1 UNK         0.0888 
     74 H74        30.9400   20.8569   -3.5774 H         1 UNK         0.0888 
     75 H75        28.7495   23.3028   -4.0354 H         1 UNK         0.3017 
     76 H76        27.8031   24.8494   -2.8485 H         1 UNK         0.0873 
     77 H77        28.3764   25.3253   -0.5117 H         1 UNK         0.0745 
     78 H78        29.0227   23.7301   -0.2900 H         1 UNK         0.0745 
     79 H79        31.3410   23.0028   -0.8394 H         1 UNK         0.0705 
     80 H80        32.6406   24.1277   -1.1282 H         1 UNK         0.0705 
     81 H81        33.2121   25.8853    0.5504 H         1 UNK         0.1334 
     82 H82        31.9611   25.1694    4.5894 H         1 UNK         0.1417 
     83 H83        30.2630   22.8862    1.3862 H         1 UNK         0.1562 
     84 H84        30.4840   23.3220    5.0938 H         1 UNK         0.0748 
     85 H85        30.0986   22.1654    3.8456 H         1 UNK         0.0748 
     86 H86        29.5186   25.6401    5.1684 H         1 UNK         0.0940 
     87 H87        27.7897   25.7904    5.3047 H         1 UNK         0.0940 
     88 H88        29.3432   26.2840    2.7151 H         1 UNK         0.0703 
     89 H89        26.4923   26.2478    3.2393 H         1 UNK         0.3081 
     90 H90        25.0442   27.7272    1.6047 H         1 UNK         0.0719 
     91 H91        26.1055   26.9453   -1.1544 H         1 UNK         0.0809 
     92 H92        24.4630   27.4954   -0.8216 H         1 UNK         0.0809 
     93 H93        25.8248   28.5709   -0.5561 H         1 UNK         0.0809 
     94 H94        24.9712   25.1593    0.2373 H         1 UNK         0.2990 
     95 H95        24.0278   23.2621    3.0136 H         1 UNK         0.0690 
     96 H96        21.6778   23.1372    2.2094 H         1 UNK         0.0788 
     97 H97        21.8715   24.6601    1.3395 H         1 UNK         0.0788 
     98 H98        21.9473   24.6279    3.0956 H         1 UNK         0.0788 
     99 H99        23.4152   23.1468    0.1579 H         1 UNK         0.2993 
    100 H100       25.6586   20.6216   -0.3706 H         1 UNK         0.0949 
    101 H101       23.7783   22.6035   -1.7878 H         1 UNK         0.0767 
    102 H102       24.3139   21.0471   -2.4001 H         1 UNK         0.0767 
    103 H103       23.2862   21.1155   -0.9826 H         1 UNK         0.0767 
    104 H104       27.3491   21.6958   -1.3490 H         1 UNK         0.3013 
    105 H105       28.9095   28.6384    1.9798 H         1 UNK         0.3121 
    106 H106       30.1029   30.3845    4.0709 H         1 UNK         0.0774 
    107 H107       27.7660   31.1886    2.2553 H         1 UNK         0.0815 
    108 H108       28.6134   32.2598    3.3635 H         1 UNK         0.0815 
    109 H109       27.6653   30.9258    3.9957 H         1 UNK         0.0815 
    110 H110       30.6591   28.9215    1.2545 H         1 UNK         0.2987 
    111 H111       31.2726   30.8424   -0.6547 H         1 UNK         0.0949 
    112 H112       32.4892   28.0603   -0.2283 H         1 UNK         0.0806 
    113 H113       31.0127   28.4176   -1.1218 H         1 UNK         0.0806 
    114 H114       32.5624   28.9799   -1.7246 H         1 UNK         0.0806 
    115 H115       33.2595   29.8751    2.0822 H         1 UNK         0.3010 
    116 H116       35.6633   31.2696    1.0807 H         1 UNK         0.0829 
    117 H117       36.7352   30.3702    3.0824 H         1 UNK         0.0813 
    118 H118       35.1969   29.8652    3.7595 H         1 UNK         0.0813 
    119 H119       35.8379   29.0726    2.3178 H         1 UNK         0.0813 
    120 H120       33.0104   32.6463    1.7946 H         1 UNK         0.3038 
    121 H121       32.2538   34.5647    2.5707 H         1 UNK         0.0769 
    122 H122       35.0960   35.3273    3.4334 H         1 UNK         0.0811 
    123 H123       33.7144   36.4001    3.3113 H         1 UNK         0.0811 
    124 H124       34.3783   35.6667    1.8596 H         1 UNK         0.0811 
    125 H125       31.3965   32.7625    3.8458 H         1 UNK         0.3204 
    126 H126       30.3931   31.9929    5.6871 H         1 UNK         0.0748 
    127 H127       30.4486   33.0847    7.8646 H         1 UNK         0.0771 
    128 H128       31.7896   34.1091    7.3932 H         1 UNK         0.0771 
    129 H129       30.2211   34.2935    6.6103 H         1 UNK         0.0771 
    130 H130       31.3171   30.0018    5.4874 H         1 UNK         0.2980 
    131 H131       34.0034   29.3528    6.1350 H         1 UNK         0.0545 
    132 H132       34.8632   28.0363    7.8788 H         1 UNK         0.3459 
    133 H133       34.0151   27.9213    9.3980 H         1 UNK         0.3459 
    134 H134       31.5872   27.5122    5.7085 H         1 UNK         0.0616 
    135 H135       33.2493   26.9946    5.7648 H         1 UNK         0.0616 
    136 H136       34.3032   27.0374    2.2918 H         1 UNK         0.0634 
    137 H137       34.3144   26.3173    3.8766 H         1 UNK         0.0634 
@<TRIPOS>BOND
     1    1    2 1    
     2    1   72 1    
     3    1   73 1    
     4    1   74 1    
     5    2    3 2    
     6    2    4 am   BACKBONE|DICT|INTERRES
     7    4    5 1    
     8    4   75 1    
     9    5    6 1    
    10    5   35 1    
    11    5   76 1    
    12    6    7 1    
    13    6   77 1    
    14    6   78 1    
    15    7    8 1    
    16    8    9 1    
    17    8   79 1    
    18    8   80 1    
    19    9   10 ar   
    20    9   14 ar   
    21   10   11 ar   
    22   10   81 1    
    23   11   12 ar   
    24   11   71 1    
    25   12   13 ar   
    26   12   82 1    
    27   13   14 ar   
    28   13   15 1    
    29   14   83 1    
    30   15   16 1    
    31   15   84 1    
    32   15   85 1    
    33   16   17 1    
    34   17   18 1    
    35   17   86 1    
    36   17   87 1    
    37   18   19 1    
    38   18   37 1    
    39   18   88 1    
    40   19   20 am   BACKBONE|DICT|INTERRES
    41   19   89 1    
    42   20   21 2    
    43   20   22 1    
    44   22   23 1    
    45   22   24 1    
    46   22   90 1    
    47   23   91 1    
    48   23   92 1    
    49   23   93 1    
    50   24   25 am   BACKBONE|DICT|INTERRES
    51   24   94 1    
    52   25   26 2    
    53   25   27 1    
    54   27   28 1    
    55   27   29 1    
    56   27   95 1    
    57   28   96 1    
    58   28   97 1    
    59   28   98 1    
    60   29   30 am   BACKBONE|DICT|INTERRES
    61   29   99 1    
    62   30   31 2    
    63   30   32 1    
    64   32   33 1    
    65   32   34 1    
    66   32  100 1    
    67   33  101 1    
    68   33  102 1    
    69   33  103 1    
    70   34   35 am   BACKBONE|DICT|INTERRES
    71   34  104 1    
    72   35   36 2    
    73   37   38 2    
    74   37   39 am   BACKBONE|DICT|INTERRES
    75   39   40 1    
    76   39  105 1    
    77   40   41 1    
    78   40   42 1    
    79   40  106 1    
    80   41  107 1    
    81   41  108 1    
    82   41  109 1    
    83   42   43 2    
    84   42   44 am   BACKBONE|DICT|INTERRES
    85   44   45 1    
    86   44  110 1    
    87   45   46 1    
    88   45   47 1    
    89   45  111 1    
    90   46  112 1    
    91   46  113 1    
    92   46  114 1    
    93   47   48 2    
    94   47   49 am   BACKBONE|DICT|INTERRES
    95   49   50 1    
    96   49  115 1    
    97   50   51 1    
    98   50   52 1    
    99   50  116 1    
   100   51  117 1    
   101   51  118 1    
   102   51  119 1    
   103   52   53 2    
   104   52   54 am   BACKBONE|DICT|INTERRES
   105   54   55 1    
   106   54  120 1    
   107   55   56 1    
   108   55   57 1    
   109   55  121 1    
   110   56  122 1    
   111   56  123 1    
   112   56  124 1    
   113   57   58 2    
   114   57   59 am   BACKBONE|DICT|INTERRES
   115   59   60 1    
   116   59  125 1    
   117   60   61 1    
   118   60   62 1    
   119   60  126 1    
   120   61  127 1    
   121   61  128 1    
   122   61  129 1    
   123   62   63 2    
   124   62   64 am   BACKBONE|DICT|INTERRES
   125   64   65 1    
   126   64  130 1    
   127   65   66 1    
   128   65   69 1    
   129   65  131 1    
   130   66   67 am   BACKBONE|DICT|INTERRES
   131   66   68 2    
   132   67  132 1    
   133   67  133 1    
   134   69   70 1    
   135   69  134 1    
   136   69  135 1    
   137   70   71 1    
   138   71  136 1    
   139   71  137 1    
@<TRIPOS>SUBSTRUCTURE
     1 UNK         1 GROUP             0       ****    0 ROOT    
