@<TRIPOS>MOLECULE
3R136
137   139    1
SMALL
USER_CHARGES


@<TRIPOS>ATOM
      1 CA         28.5386   25.4801    4.0477 C.3       0 UNK        -0.1979 
      2 C          27.9381   24.1420    3.6484 C.2       0 UNK         0.4864 
      3 O          26.8112   23.8461    4.0466 O.2       0 UNK        -0.5359 
      4 N          28.6813   23.3264    2.8856 N.am      1 UNK        -0.4318 
      5 CA         28.2830   21.9669    2.4990 C.3       1 UNK         0.0824 
      6 C6         29.4544   21.1475    1.9016 C.3       12 UNK        -0.0944 
      7 S7         30.7224   20.7577    3.1559 S.3       12 UNK        -0.2672 
      8 C8         32.2381   21.4583    2.4299 C.3       12 UNK         0.0333 
      9 C9         32.2272   22.9781    2.4607 C.ar      12 UNK        -0.0807 
     10 C10        32.4262   23.6565    3.6682 C.ar      12 UNK        -0.0894 
     11 C11        32.3903   25.0534    3.7112 C.ar      12 UNK        -0.0804 
     12 C12        32.1427   25.7640    2.5365 C.ar      12 UNK        -0.0824 
     13 C13        31.9936   25.1024    1.3157 C.ar      12 UNK        -0.0762 
     14 C14        32.0319   23.7064    1.2834 C.ar      12 UNK        -0.0782 
     15 C15        31.8092   25.8994    0.0324 C.3       12 UNK         0.0230 
     16 S16        30.1324   25.7303   -0.6467 S.3       12 UNK        -0.2608 
     17 C17        29.1265   26.5087    0.6592 C.3       12 UNK        -0.0989 
     18 CA         28.6633   27.9379    0.3000 C.3       5 UNK         0.0716 
     19 N          27.8362   27.9559   -0.9103 N.am      5 UNK        -0.4135 
     20 C          27.4409   29.0691   -1.5436 C.2       4 UNK         0.5031 
     21 O          27.7781   30.2023   -1.1949 O.2       4 UNK        -0.5229 
     22 CA         26.5470   28.9240   -2.7907 C.3       4 UNK         0.0329 
     23 CB         27.2659   29.4693   -4.0375 C.3       4 UNK        -0.2001 
     24 N          26.1055   27.5560   -3.0710 N.am      4 UNK        -0.4303 
     25 C          25.1156   26.9089   -2.4418 C.2       3 UNK         0.5044 
     26 O          24.4763   27.3810   -1.5010 O.2       3 UNK        -0.5152 
     27 CA         24.7529   25.5037   -2.9670 C.3       3 UNK         0.0319 
     28 CB         25.5226   25.0857   -4.2425 C.3       3 UNK        -0.2001 
     29 N          24.8777   24.4541   -1.9495 N.am      3 UNK        -0.4354 
     30 C          25.9660   24.1579   -1.2249 C.2       2 UNK         0.4964 
     31 O          27.0037   24.8214   -1.2266 O.2       2 UNK        -0.5047 
     32 CA         25.8949   22.8568   -0.4169 C.3       2 UNK         0.0288 
     33 CB         25.9777   21.6427   -1.3694 C.3       2 UNK        -0.2113 
     34 N          26.9811   22.8045    0.5649 N.am      2 UNK        -0.4145 
     35 C          27.0486   21.9228    1.5730 C.2       1 UNK         0.5006 
     36 O          26.1762   21.0798    1.7941 O.2       1 UNK        -0.5103 
     37 C          27.9287   28.5563    1.5076 C.2       5 UNK         0.5055 
     38 O          26.6985   28.4980    1.5831 O.2       5 UNK        -0.5220 
     39 N          28.7073   29.0744    2.4608 N.am      6 UNK        -0.4450 
     40 CA         28.2414   29.5542    3.7602 C.3       6 UNK         0.0367 
     41 CB         28.2084   31.0919    3.7548 C.3       6 UNK        -0.1929 
     42 C          29.1776   29.0085    4.8452 C.2       6 UNK         0.5070 
     43 O          30.1862   28.3821    4.5238 O.2       6 UNK        -0.5237 
     44 N          28.8316   29.2434    6.1166 N.am      7 UNK        -0.4739 
     45 CA         29.6083   28.7883    7.2778 C.3       7 UNK         0.0276 
     46 CB         28.7351   28.9036    8.5382 C.3       7 UNK        -0.1927 
     47 C          30.9432   29.5343    7.4777 C.2       7 UNK         0.5013 
     48 O          31.8085   29.0343    8.1974 O.2       7 UNK        -0.5193 
     49 N          31.0838   30.7098    6.8570 N.am      8 UNK        -0.4253 
     50 CA         32.2700   31.5577    6.8663 C.3       8 UNK         0.0242 
     51 CB         32.2524   32.4658    8.1096 C.3       8 UNK        -0.2000 
     52 C          32.2754   32.3818    5.5742 C.2       8 UNK         0.4948 
     53 O          31.2388   32.4791    4.9106 O.2       8 UNK        -0.5275 
     54 N          33.4374   32.9602    5.2406 N.am      9 UNK        -0.4246 
     55 CA         33.7433   33.7619    4.0450 C.3       9 UNK         0.0261 
     56 CB         32.8764   35.0352    3.9610 C.3       9 UNK        -0.1959 
     57 C          33.6943   32.9465    2.7413 C.2       9 UNK         0.5033 
     58 O          34.7243   32.7966    2.0835 O.2       9 UNK        -0.5390 
     59 N          32.5248   32.3828    2.4181 N.am      10 UNK        -0.4215 
     60 CA         32.3182   31.4278    1.3279 C.3       10 UNK         0.0240 
     61 CB         30.8991   31.6036    0.7551 C.3       10 UNK        -0.1982 
     62 C          32.5925   29.9992    1.8315 C.2       10 UNK         0.4970 
     63 O          31.6981   29.1525    1.7966 O.2       10 UNK        -0.4916 
     64 N          33.8214   29.7872    2.3155 N.am      11 UNK        -0.4279 
     65 CA         34.3565   28.5552    2.9000 C.3       11 UNK         0.1003 
     66 C          35.9045   28.6231    2.8694 C.2       11 UNK         0.5709 
     67 N          36.5754   27.5208    2.5649 N.am      11 UNK        -0.7358 
     68 O          36.5018   29.6660    3.1314 O.2       11 UNK        -0.4999 
     69 C69        33.7979   28.3134    4.3322 C.3       12 UNK        -0.0954 
     70 S70        34.2071   26.6788    5.0471 S.3       12 UNK        -0.2268 
     71 C71        32.6101   25.7967    5.0218 C.3       12 UNK         0.0203 
     72 H72        29.5775   25.5723    3.7386 H         1 UNK         0.0888 
     73 H73        28.5048   25.5998    5.1302 H         1 UNK         0.0888 
     74 H74        27.9706   26.2943    3.6003 H         1 UNK         0.0888 
     75 H75        29.6151   23.6030    2.6145 H         1 UNK         0.3017 
     76 H76        27.9757   21.4636    3.4189 H         1 UNK         0.0873 
     77 H77        29.0969   20.1920    1.5117 H         1 UNK         0.0745 
     78 H78        29.8999   21.6697    1.0535 H         1 UNK         0.0745 
     79 H79        33.0984   21.0947    2.9937 H         1 UNK         0.0705 
     80 H80        32.3613   21.0848    1.4120 H         1 UNK         0.0705 
     81 H81        32.5984   23.0924    4.5749 H         1 UNK         0.1334 
     82 H82        32.0727   26.8392    2.5788 H         1 UNK         0.1417 
     83 H83        31.9024   23.1915    0.3408 H         1 UNK         0.1562 
     84 H84        32.5274   25.5518   -0.7115 H         1 UNK         0.0748 
     85 H85        32.0249   26.9568    0.1932 H         1 UNK         0.0748 
     86 H86        29.7010   26.5280    1.5837 H         1 UNK         0.0940 
     87 H87        28.2665   25.8668    0.8565 H         1 UNK         0.0940 
     88 H88        29.5479   28.5467    0.0995 H         1 UNK         0.0703 
     89 H89        27.5133   27.0549   -1.2405 H         1 UNK         0.3081 
     90 H90        25.6609   29.5384   -2.6167 H         1 UNK         0.0719 
     91 H91        28.1709   28.9033   -4.2614 H         1 UNK         0.0809 
     92 H92        26.6208   29.4355   -4.9157 H         1 UNK         0.0809 
     93 H93        27.5600   30.5104   -3.8971 H         1 UNK         0.0809 
     94 H94        26.5852   27.0728   -3.8168 H         1 UNK         0.2990 
     95 H95        23.6947   25.5506   -3.2281 H         1 UNK         0.0690 
     96 H96        25.1705   24.1213   -4.6094 H         1 UNK         0.0788 
     97 H97        26.5950   24.9932   -4.0655 H         1 UNK         0.0788 
     98 H98        25.3736   25.8018   -5.0519 H         1 UNK         0.0788 
     99 H99        24.0647   23.8635   -1.8430 H         1 UNK         0.2993 
    100 H100       24.9422   22.8423    0.1169 H         1 UNK         0.0949 
    101 H101       25.1955   21.6764   -2.1288 H         1 UNK         0.0767 
    102 H102       26.9353   21.6105   -1.8908 H         1 UNK         0.0767 
    103 H103       25.8567   20.6993   -0.8376 H         1 UNK         0.0767 
    104 H104       27.7066   23.4984    0.4334 H         1 UNK         0.3013 
    105 H105       29.7199   29.0052    2.3753 H         1 UNK         0.3121 
    106 H106       27.2402   29.1719    3.9701 H         1 UNK         0.0774 
    107 H107       27.5789   31.4702    2.9492 H         1 UNK         0.0815 
    108 H108       29.2035   31.5144    3.6254 H         1 UNK         0.0815 
    109 H109       27.8068   31.4859    4.6887 H         1 UNK         0.0815 
    110 H110       27.9858   29.7612    6.3097 H         1 UNK         0.2987 
    111 H111       29.8539   27.7342    7.1282 H         1 UNK         0.0949 
    112 H112       29.2685   28.5394    9.4176 H         1 UNK         0.0806 
    113 H113       27.8246   28.3110    8.4470 H         1 UNK         0.0806 
    114 H114       28.4476   29.9367    8.7371 H         1 UNK         0.0806 
    115 H115       30.3556   31.0279    6.2295 H         1 UNK         0.3010 
    116 H116       33.1627   30.9283    6.8771 H         1 UNK         0.0829 
    117 H117       32.2477   31.8798    9.0288 H         1 UNK         0.0813 
    118 H118       33.1324   33.1090    8.1430 H         1 UNK         0.0813 
    119 H119       31.3739   33.1124    8.1216 H         1 UNK         0.0813 
    120 H120       34.2273   32.8019    5.8518 H         1 UNK         0.3038 
    121 H121       34.7774   34.0886    4.1679 H         1 UNK         0.0769 
    122 H122       31.8175   34.8116    3.8300 H         1 UNK         0.0811 
    123 H123       33.1807   35.6551    3.1168 H         1 UNK         0.0811 
    124 H124       32.9791   35.6418    4.8607 H         1 UNK         0.0811 
    125 H125       31.7744   32.4765    3.0998 H         1 UNK         0.3204 
    126 H126       33.0254   31.6308    0.5210 H         1 UNK         0.0748 
    127 H127       30.7482   32.6148    0.3774 H         1 UNK         0.0771 
    128 H128       30.7242   30.9194   -0.0763 H         1 UNK         0.0771 
    129 H129       30.1307   31.4098    1.5014 H         1 UNK         0.0771 
    130 H130       34.4887   30.5508    2.2854 H         1 UNK         0.2980 
    131 H131       34.0580   27.7364    2.2464 H         1 UNK         0.0545 
    132 H132       37.5826   27.5490    2.5478 H         1 UNK         0.3459 
    133 H133       36.0940   26.6545    2.3802 H         1 UNK         0.3459 
    134 H134       34.1662   29.0816    5.0143 H         1 UNK         0.0616 
    135 H135       32.7160   28.4288    4.3322 H         1 UNK         0.0616 
    136 H136       32.6003   25.0936    5.8557 H         1 UNK         0.0634 
    137 H137       31.7888   26.4877    5.2076 H         1 UNK         0.0634 
@<TRIPOS>BOND
     1    1    2 1    
     2    1   72 1    
     3    1   73 1    
     4    1   74 1    
     5    2    3 2    
     6    2    4 am   BACKBONE|DICT|INTERRES
     7    4    5 1    
     8    4   75 1    
     9    5    6 1    
    10    5   35 1    
    11    5   76 1    
    12    6    7 1    
    13    6   77 1    
    14    6   78 1    
    15    7    8 1    
    16    8    9 1    
    17    8   79 1    
    18    8   80 1    
    19    9   10 ar   
    20    9   14 ar   
    21   10   11 ar   
    22   10   81 1    
    23   11   12 ar   
    24   11   71 1    
    25   12   13 ar   
    26   12   82 1    
    27   13   14 ar   
    28   13   15 1    
    29   14   83 1    
    30   15   16 1    
    31   15   84 1    
    32   15   85 1    
    33   16   17 1    
    34   17   18 1    
    35   17   86 1    
    36   17   87 1    
    37   18   19 1    
    38   18   37 1    
    39   18   88 1    
    40   19   20 am   BACKBONE|DICT|INTERRES
    41   19   89 1    
    42   20   21 2    
    43   20   22 1    
    44   22   23 1    
    45   22   24 1    
    46   22   90 1    
    47   23   91 1    
    48   23   92 1    
    49   23   93 1    
    50   24   25 am   BACKBONE|DICT|INTERRES
    51   24   94 1    
    52   25   26 2    
    53   25   27 1    
    54   27   28 1    
    55   27   29 1    
    56   27   95 1    
    57   28   96 1    
    58   28   97 1    
    59   28   98 1    
    60   29   30 am   BACKBONE|DICT|INTERRES
    61   29   99 1    
    62   30   31 2    
    63   30   32 1    
    64   32   33 1    
    65   32   34 1    
    66   32  100 1    
    67   33  101 1    
    68   33  102 1    
    69   33  103 1    
    70   34   35 am   BACKBONE|DICT|INTERRES
    71   34  104 1    
    72   35   36 2    
    73   37   38 2    
    74   37   39 am   BACKBONE|DICT|INTERRES
    75   39   40 1    
    76   39  105 1    
    77   40   41 1    
    78   40   42 1    
    79   40  106 1    
    80   41  107 1    
    81   41  108 1    
    82   41  109 1    
    83   42   43 2    
    84   42   44 am   BACKBONE|DICT|INTERRES
    85   44   45 1    
    86   44  110 1    
    87   45   46 1    
    88   45   47 1    
    89   45  111 1    
    90   46  112 1    
    91   46  113 1    
    92   46  114 1    
    93   47   48 2    
    94   47   49 am   BACKBONE|DICT|INTERRES
    95   49   50 1    
    96   49  115 1    
    97   50   51 1    
    98   50   52 1    
    99   50  116 1    
   100   51  117 1    
   101   51  118 1    
   102   51  119 1    
   103   52   53 2    
   104   52   54 am   BACKBONE|DICT|INTERRES
   105   54   55 1    
   106   54  120 1    
   107   55   56 1    
   108   55   57 1    
   109   55  121 1    
   110   56  122 1    
   111   56  123 1    
   112   56  124 1    
   113   57   58 2    
   114   57   59 am   BACKBONE|DICT|INTERRES
   115   59   60 1    
   116   59  125 1    
   117   60   61 1    
   118   60   62 1    
   119   60  126 1    
   120   61  127 1    
   121   61  128 1    
   122   61  129 1    
   123   62   63 2    
   124   62   64 am   BACKBONE|DICT|INTERRES
   125   64   65 1    
   126   64  130 1    
   127   65   66 1    
   128   65   69 1    
   129   65  131 1    
   130   66   67 am   BACKBONE|DICT|INTERRES
   131   66   68 2    
   132   67  132 1    
   133   67  133 1    
   134   69   70 1    
   135   69  134 1    
   136   69  135 1    
   137   70   71 1    
   138   71  136 1    
   139   71  137 1    
@<TRIPOS>SUBSTRUCTURE
     1 UNK         1 GROUP             0       ****    0 ROOT    
