@<TRIPOS>MOLECULE
3R136
137   139    1
SMALL
USER_CHARGES


@<TRIPOS>ATOM
      1 CA         28.3007   16.8458   -0.8276 C.3       0 UNK        -0.1979 
      2 C          29.3905   17.8768   -0.5723 C.2       0 UNK         0.4864 
      3 O          30.3847   17.9087   -1.3001 O.2       0 UNK        -0.5359 
      4 N          29.2156   18.7109    0.4603 N.am      1 UNK        -0.4318 
      5 CA         30.1157   19.8123    0.8154 C.3       1 UNK         0.0824 
      6 C6         30.0164   20.1659    2.3220 C.3       12 UNK        -0.0944 
      7 S7         28.3404   20.6086    2.8965 S.3       12 UNK        -0.2672 
      8 C8         28.7178   21.3811    4.5019 C.3       12 UNK         0.0333 
      9 C9         28.9704   22.8738    4.3532 C.ar      12 UNK        -0.0807 
     10 C10        30.2587   23.3593    4.1130 C.ar      12 UNK        -0.0894 
     11 C11        30.4849   24.7287    3.9438 C.ar      12 UNK        -0.0804 
     12 C12        29.4064   25.6157    4.0379 C.ar      12 UNK        -0.0824 
     13 C13        28.1132   25.1450    4.3014 C.ar      12 UNK        -0.0762 
     14 C14        27.9046   23.7715    4.4525 C.ar      12 UNK        -0.0782 
     15 C15        26.9229   26.0959    4.3579 C.3       12 UNK         0.0230 
     16 S16        27.2149   27.5351    5.4352 S.3       12 UNK        -0.2608 
     17 C17        26.3823   28.8539    4.4876 C.3       12 UNK        -0.0989 
     18 CA         27.3955   29.6712    3.6529 C.3       5 UNK         0.0716 
     19 N          28.1102   28.8521    2.6641 N.am      5 UNK        -0.4135 
     20 C          29.1698   29.2433    1.9450 C.2       4 UNK         0.5031 
     21 O          29.6906   30.3530    2.0764 O.2       4 UNK        -0.5229 
     22 CA         29.7502   28.2620    0.9048 C.3       4 UNK         0.0329 
     23 CB         31.2836   28.2211    0.9906 C.3       4 UNK        -0.2001 
     24 N          29.2423   26.8856    0.9665 N.am      4 UNK        -0.4303 
     25 C          28.0175   26.4707    0.6141 C.2       3 UNK         0.5044 
     26 O          27.1038   27.2438    0.3234 O.2       3 UNK        -0.5152 
     27 CA         27.7696   24.9456    0.6315 C.3       3 UNK         0.0319 
     28 CB         26.6055   24.5234   -0.2891 C.3       3 UNK        -0.2001 
     29 N          28.9719   24.1431    0.3572 N.am      3 UNK        -0.4354 
     30 C          29.7050   24.1536   -0.7685 C.2       2 UNK         0.4964 
     31 O          29.4724   24.8797   -1.7352 O.2       2 UNK        -0.5047 
     32 CA         30.9218   23.2114   -0.8325 C.3       2 UNK         0.0288 
     33 CB         32.2059   23.9809   -0.4775 C.3       2 UNK        -0.2113 
     34 N          30.8379   22.0116    0.0093 N.am      2 UNK        -0.4145 
     35 C          29.9221   21.0376   -0.1084 C.2       1 UNK         0.5006 
     36 O          28.9770   21.0815   -0.9016 O.2       1 UNK        -0.5103 
     37 C          26.7313   30.9058    3.0107 C.2       5 UNK         0.5055 
     38 O          26.6909   31.9628    3.6409 O.2       5 UNK        -0.5220 
     39 N          26.3018   30.7787    1.7454 N.am      6 UNK        -0.4450 
     40 CA         25.7999   31.8772    0.9121 C.3       6 UNK         0.0367 
     41 CB         25.2148   31.2952   -0.3847 C.3       6 UNK        -0.1929 
     42 C          26.8623   32.9480    0.5879 C.2       6 UNK         0.5070 
     43 O          26.4968   34.0831    0.2843 O.2       6 UNK        -0.5237 
     44 N          28.1482   32.5822    0.6813 N.am      7 UNK        -0.4739 
     45 CA         29.3047   33.4657    0.5230 C.3       7 UNK         0.0276 
     46 CB         30.3394   32.7616   -0.3746 C.3       7 UNK        -0.1927 
     47 C          29.8999   33.8674    1.8885 C.2       7 UNK         0.5013 
     48 O          31.0827   34.2015    1.9556 O.2       7 UNK        -0.5193 
     49 N          29.0778   33.8233    2.9497 N.am      8 UNK        -0.4253 
     50 CA         29.4052   34.1236    4.3494 C.3       8 UNK         0.0242 
     51 CB         29.8383   35.5958    4.5253 C.3       8 UNK        -0.2000 
     52 C          30.3972   33.1164    4.9636 C.2       8 UNK         0.4948 
     53 O          31.2910   33.5109    5.7144 O.2       8 UNK        -0.5275 
     54 N          30.1937   31.8302    4.6418 N.am      9 UNK        -0.4246 
     55 CA         30.9540   30.6582    5.0926 C.3       9 UNK         0.0261 
     56 CB         30.8520   30.4684    6.6208 C.3       9 UNK        -0.1959 
     57 C          32.3982   30.6696    4.5691 C.2       9 UNK         0.5033 
     58 O          33.3406   30.4375    5.3299 O.2       9 UNK        -0.5390 
     59 N          32.5489   30.9065    3.2588 N.am      10 UNK        -0.4215 
     60 CA         33.8299   30.9111    2.5421 C.3       10 UNK         0.0240 
     61 CB         33.6880   31.7565    1.2628 C.3       10 UNK        -0.1982 
     62 C          34.3418   29.4831    2.2561 C.2       10 UNK         0.4970 
     63 O          34.6511   29.1546    1.1097 O.2       10 UNK        -0.4916 
     64 N          34.3885   28.6494    3.3006 N.am      11 UNK        -0.4279 
     65 CA         34.7690   27.2306    3.2466 C.3       11 UNK         0.1003 
     66 C          36.2867   26.9700    3.0165 C.2       11 UNK         0.5709 
     67 N          37.1614   27.9623    3.1350 N.am      11 UNK        -0.7358 
     68 O          36.6762   25.8437    2.7177 O.2       11 UNK        -0.4999 
     69 C69        34.2591   26.4577    4.4920 C.3       12 UNK        -0.0954 
     70 S70        32.4514   26.5547    4.7345 S.3       12 UNK        -0.2268 
     71 C71        31.8903   25.2260    3.6224 C.3       12 UNK         0.0203 
     72 H72        28.7148   15.8395   -0.7714 H         1 UNK         0.0888 
     73 H73        27.4913   16.9204   -0.1014 H         1 UNK         0.0888 
     74 H74        27.8777   16.9863   -1.8220 H         1 UNK         0.0888 
     75 H75        28.3658   18.6635    1.0047 H         1 UNK         0.3017 
     76 H76        31.1369   19.4655    0.6406 H         1 UNK         0.0873 
     77 H77        30.3464   19.3084    2.9110 H         1 UNK         0.0745 
     78 H78        30.7114   20.9668    2.5713 H         1 UNK         0.0745 
     79 H79        27.8760   21.2144    5.1759 H         1 UNK         0.0705 
     80 H80        29.5751   20.8893    4.9644 H         1 UNK         0.0705 
     81 H81        31.0868   22.6677    4.0481 H         1 UNK         0.1334 
     82 H82        29.5768   26.6752    3.9081 H         1 UNK         0.1417 
     83 H83        26.9070   23.3942    4.6333 H         1 UNK         0.1562 
     84 H84        26.0302   25.5815    4.7175 H         1 UNK         0.0748 
     85 H85        26.6949   26.4186    3.3431 H         1 UNK         0.0748 
     86 H86        25.8786   29.5010    5.2089 H         1 UNK         0.0940 
     87 H87        25.5930   28.4350    3.8602 H         1 UNK         0.0940 
     88 H88        28.1404   30.0531    4.3504 H         1 UNK         0.0703 
     89 H89        27.7156   27.9479    2.4551 H         1 UNK         0.3081 
     90 H90        29.4827   28.6619   -0.0753 H         1 UNK         0.0719 
     91 H91        31.6251   27.9355    1.9857 H         1 UNK         0.0809 
     92 H92        31.7110   27.5222    0.2712 H         1 UNK         0.0809 
     93 H93        31.7087   29.1998    0.7682 H         1 UNK         0.0809 
     94 H94        29.9143   26.1740    1.2111 H         1 UNK         0.2990 
     95 H95        27.4727   24.6967    1.6489 H         1 UNK         0.0690 
     96 H96        26.4443   23.4458   -0.2536 H         1 UNK         0.0788 
     97 H97        26.7885   24.8010   -1.3276 H         1 UNK         0.0788 
     98 H98        25.6725   24.9998    0.0143 H         1 UNK         0.0788 
     99 H99        29.2501   23.5078    1.0924 H         1 UNK         0.2993 
    100 H100       31.0022   22.8740   -1.8682 H         1 UNK         0.0949 
    101 H101       33.0940   23.3738   -0.6545 H         1 UNK         0.0767 
    102 H102       32.3066   24.8803   -1.0873 H         1 UNK         0.0767 
    103 H103       32.2153   24.2926    0.5669 H         1 UNK         0.0767 
    104 H104       31.5835   21.8904    0.6792 H         1 UNK         0.3013 
    105 H105       26.3773   29.8742    1.3002 H         1 UNK         0.3121 
    106 H106       24.9960   32.3731    1.4603 H         1 UNK         0.0774 
    107 H107       25.9707   30.7674   -0.9679 H         1 UNK         0.0815 
    108 H108       24.8073   32.0846   -1.0180 H         1 UNK         0.0815 
    109 H109       24.4025   30.5984   -0.1770 H         1 UNK         0.0815 
    110 H110       28.3665   31.6399    0.9809 H         1 UNK         0.2987 
    111 H111       29.0060   34.3921    0.0277 H         1 UNK         0.0949 
    112 H112       30.6954   31.8345    0.0740 H         1 UNK         0.0806 
    113 H113       29.9158   32.5188   -1.3491 H         1 UNK         0.0806 
    114 H114       31.2089   33.3958   -0.5519 H         1 UNK         0.0806 
    115 H115       28.1300   33.5027    2.7920 H         1 UNK         0.3010 
    116 H116       28.4746   33.9943    4.9046 H         1 UNK         0.0829 
    117 H117       30.8034   35.7952    4.0589 H         1 UNK         0.0813 
    118 H118       29.1078   36.2793    4.0928 H         1 UNK         0.0813 
    119 H119       29.9325   35.8500    5.5817 H         1 UNK         0.0813 
    120 H120       29.4911   31.6393    3.9398 H         1 UNK         0.3038 
    121 H121       30.4859   29.7852    4.6373 H         1 UNK         0.0769 
    122 H122       31.3177   29.5303    6.9258 H         1 UNK         0.0811 
    123 H123       31.3514   31.2693    7.1665 H         1 UNK         0.0811 
    124 H124       29.8127   30.4340    6.9473 H         1 UNK         0.0811 
    125 H125       31.7116   31.0359    2.7024 H         1 UNK         0.3204 
    126 H126       34.5773   31.3961    3.1736 H         1 UNK         0.0748 
    127 H127       34.6439   31.8458    0.7451 H         1 UNK         0.0771 
    128 H128       32.9793   31.3154    0.5623 H         1 UNK         0.0771 
    129 H129       33.3513   32.7678    1.4905 H         1 UNK         0.0771 
    130 H130       34.1189   29.0129    4.2094 H         1 UNK         0.2980 
    131 H131       34.2681   26.8035    2.3757 H         1 UNK         0.0545 
    132 H132       38.1400   27.7792    2.9789 H         1 UNK         0.3459 
    133 H133       36.8529   28.8888    3.3809 H         1 UNK         0.3459 
    134 H134       34.5463   25.4058    4.4424 H         1 UNK         0.0616 
    135 H135       34.7334   26.8515    5.3927 H         1 UNK         0.0616 
    136 H136       31.9157   25.5904    2.5959 H         1 UNK         0.0634 
    137 H137       32.5988   24.3980    3.6725 H         1 UNK         0.0634 
@<TRIPOS>BOND
     1    1    2 1    
     2    1   72 1    
     3    1   73 1    
     4    1   74 1    
     5    2    3 2    
     6    2    4 am   BACKBONE|DICT|INTERRES
     7    4    5 1    
     8    4   75 1    
     9    5    6 1    
    10    5   35 1    
    11    5   76 1    
    12    6    7 1    
    13    6   77 1    
    14    6   78 1    
    15    7    8 1    
    16    8    9 1    
    17    8   79 1    
    18    8   80 1    
    19    9   10 ar   
    20    9   14 ar   
    21   10   11 ar   
    22   10   81 1    
    23   11   12 ar   
    24   11   71 1    
    25   12   13 ar   
    26   12   82 1    
    27   13   14 ar   
    28   13   15 1    
    29   14   83 1    
    30   15   16 1    
    31   15   84 1    
    32   15   85 1    
    33   16   17 1    
    34   17   18 1    
    35   17   86 1    
    36   17   87 1    
    37   18   19 1    
    38   18   37 1    
    39   18   88 1    
    40   19   20 am   BACKBONE|DICT|INTERRES
    41   19   89 1    
    42   20   21 2    
    43   20   22 1    
    44   22   23 1    
    45   22   24 1    
    46   22   90 1    
    47   23   91 1    
    48   23   92 1    
    49   23   93 1    
    50   24   25 am   BACKBONE|DICT|INTERRES
    51   24   94 1    
    52   25   26 2    
    53   25   27 1    
    54   27   28 1    
    55   27   29 1    
    56   27   95 1    
    57   28   96 1    
    58   28   97 1    
    59   28   98 1    
    60   29   30 am   BACKBONE|DICT|INTERRES
    61   29   99 1    
    62   30   31 2    
    63   30   32 1    
    64   32   33 1    
    65   32   34 1    
    66   32  100 1    
    67   33  101 1    
    68   33  102 1    
    69   33  103 1    
    70   34   35 am   BACKBONE|DICT|INTERRES
    71   34  104 1    
    72   35   36 2    
    73   37   38 2    
    74   37   39 am   BACKBONE|DICT|INTERRES
    75   39   40 1    
    76   39  105 1    
    77   40   41 1    
    78   40   42 1    
    79   40  106 1    
    80   41  107 1    
    81   41  108 1    
    82   41  109 1    
    83   42   43 2    
    84   42   44 am   BACKBONE|DICT|INTERRES
    85   44   45 1    
    86   44  110 1    
    87   45   46 1    
    88   45   47 1    
    89   45  111 1    
    90   46  112 1    
    91   46  113 1    
    92   46  114 1    
    93   47   48 2    
    94   47   49 am   BACKBONE|DICT|INTERRES
    95   49   50 1    
    96   49  115 1    
    97   50   51 1    
    98   50   52 1    
    99   50  116 1    
   100   51  117 1    
   101   51  118 1    
   102   51  119 1    
   103   52   53 2    
   104   52   54 am   BACKBONE|DICT|INTERRES
   105   54   55 1    
   106   54  120 1    
   107   55   56 1    
   108   55   57 1    
   109   55  121 1    
   110   56  122 1    
   111   56  123 1    
   112   56  124 1    
   113   57   58 2    
   114   57   59 am   BACKBONE|DICT|INTERRES
   115   59   60 1    
   116   59  125 1    
   117   60   61 1    
   118   60   62 1    
   119   60  126 1    
   120   61  127 1    
   121   61  128 1    
   122   61  129 1    
   123   62   63 2    
   124   62   64 am   BACKBONE|DICT|INTERRES
   125   64   65 1    
   126   64  130 1    
   127   65   66 1    
   128   65   69 1    
   129   65  131 1    
   130   66   67 am   BACKBONE|DICT|INTERRES
   131   66   68 2    
   132   67  132 1    
   133   67  133 1    
   134   69   70 1    
   135   69  134 1    
   136   69  135 1    
   137   70   71 1    
   138   71  136 1    
   139   71  137 1    
@<TRIPOS>SUBSTRUCTURE
     1 UNK         1 GROUP             0       ****    0 ROOT    
