@<TRIPOS>MOLECULE
3R136
137   139    1
SMALL
USER_CHARGES


@<TRIPOS>ATOM
      1 CA         26.0554   20.3062    1.1313 C.3       0 UNK        -0.1979 
      2 C          26.7872   21.4892    0.5172 C.2       0 UNK         0.4864 
      3 O          26.1466   22.4514    0.0928 O.2       0 UNK        -0.5359 
      4 N          28.1260   21.4388    0.4791 N.am      1 UNK        -0.4318 
      5 CA         28.9933   22.4841   -0.0807 C.3       1 UNK         0.0824 
      6 C6         30.4746   22.0400   -0.1654 C.3       12 UNK        -0.0944 
      7 S7         31.1771   21.4478    1.4160 S.3       12 UNK        -0.2672 
      8 C8         32.6790   22.4648    1.5724 C.3       12 UNK         0.0333 
      9 C9         32.3854   23.8376    2.1595 C.ar      12 UNK        -0.0807 
     10 C10        32.3514   24.0091    3.5462 C.ar      12 UNK        -0.0894 
     11 C11        32.1297   25.2717    4.1050 C.ar      12 UNK        -0.0804 
     12 C12        31.9160   26.3641    3.2590 C.ar      12 UNK        -0.0824 
     13 C13        31.9441   26.2071    1.8697 C.ar      12 UNK        -0.0762 
     14 C14        32.1817   24.9411    1.3259 C.ar      12 UNK        -0.0782 
     15 C15        31.7278   27.4029    0.9538 C.3       12 UNK         0.0230 
     16 S16        29.9630   27.8281    0.8403 S.3       12 UNK        -0.2608 
     17 C17        29.8267   28.4166   -0.8782 C.3       12 UNK        -0.0989 
     18 CA         28.3730   28.5107   -1.4067 C.3       5 UNK         0.0716 
     19 N          27.6810   27.2146   -1.4563 N.am      5 UNK        -0.4135 
     20 C          26.6281   26.9761   -2.2560 C.2       4 UNK         0.5031 
     21 O          26.1988   27.7860   -3.0794 O.2       4 UNK        -0.5229 
     22 CA         25.9133   25.6215   -2.1144 C.3       4 UNK         0.0329 
     23 CB         26.6995   24.5029   -2.8166 C.3       4 UNK        -0.2001 
     24 N          25.6491   25.2585   -0.7212 N.am      4 UNK        -0.4303 
     25 C          24.8141   25.9201    0.0947 C.2       3 UNK         0.5044 
     26 O          24.1413   26.8914   -0.2497 O.2       3 UNK        -0.5152 
     27 CA         24.7198   25.4261    1.5474 C.3       3 UNK         0.0319 
     28 CB         23.6487   24.3326    1.6880 C.3       3 UNK        -0.2001 
     29 N          26.0041   24.9280    2.0413 N.am      3 UNK        -0.4354 
     30 C          27.0320   25.7181    2.3830 C.2       2 UNK         0.4964 
     31 O          26.9753   26.9473    2.3810 O.2       2 UNK        -0.5047 
     32 CA         28.3501   25.0193    2.7589 C.3       2 UNK         0.0288 
     33 CB         28.3547   24.6251    4.2440 C.3       2 UNK        -0.2113 
     34 N          28.6293   23.8385    1.9389 N.am      2 UNK        -0.4145 
     35 C          28.8276   23.8530    0.6117 C.2       1 UNK         0.5006 
     36 O          28.8191   24.8749   -0.0759 O.2       1 UNK        -0.5103 
     37 C          27.5435   29.5846   -0.6696 C.2       5 UNK         0.5055 
     38 O          27.6110   30.7556   -1.0475 O.2       5 UNK        -0.5220 
     39 N          26.7804   29.1719    0.3557 N.am      6 UNK        -0.4450 
     40 CA         25.8307   29.9332    1.1802 C.3       6 UNK         0.0367 
     41 CB         24.7038   30.5447    0.3258 C.3       6 UNK        -0.1929 
     42 C          26.4699   30.9905    2.0976 C.2       6 UNK         0.5070 
     43 O          26.0949   31.0766    3.2670 O.2       6 UNK        -0.5237 
     44 N          27.4180   31.7730    1.5687 N.am      7 UNK        -0.4739 
     45 CA         28.1683   32.8004    2.2968 C.3       7 UNK         0.0276 
     46 CB         28.8630   33.7256    1.2849 C.3       7 UNK        -0.1927 
     47 C          29.1977   32.2170    3.2799 C.2       7 UNK         0.5013 
     48 O          29.5556   32.8930    4.2454 O.2       7 UNK        -0.5193 
     49 N          29.6643   30.9901    3.0044 N.am      8 UNK        -0.4253 
     50 CA         30.6293   30.1673    3.7462 C.3       8 UNK         0.0242 
     51 CB         30.1091   29.8068    5.1499 C.3       8 UNK        -0.2000 
     52 C          32.0643   30.7178    3.8135 C.2       8 UNK         0.4948 
     53 O          33.0049   29.9427    3.6292 O.2       8 UNK        -0.5275 
     54 N          32.2142   32.0207    4.0870 N.am      9 UNK        -0.4246 
     55 CA         33.4687   32.7439    4.3176 C.3       9 UNK         0.0261 
     56 CB         34.2860   32.8490    3.0087 C.3       9 UNK        -0.1959 
     57 C          34.2344   32.1328    5.5080 C.2       9 UNK         0.5033 
     58 O          33.6709   32.0511    6.6007 O.2       9 UNK        -0.5390 
     59 N          35.4717   31.6762    5.2797 N.am      10 UNK        -0.4215 
     60 CA         36.3002   30.9501    6.2481 C.3       10 UNK         0.0240 
     61 CB         37.7735   31.3437    6.0282 C.3       10 UNK        -0.1982 
     62 C          36.0900   29.4215    6.1675 C.2       10 UNK         0.4970 
     63 O          37.0106   28.6695    6.4900 O.2       10 UNK        -0.4916 
     64 N          34.9021   28.9908    5.7208 N.am      11 UNK        -0.4279 
     65 CA         34.5414   27.6127    5.3646 C.3       11 UNK         0.1003 
     66 C          35.2902   27.1550    4.0819 C.2       11 UNK         0.5709 
     67 N          35.1115   27.8851    2.9870 N.am      11 UNK        -0.7358 
     68 O          36.0424   26.1832    4.0734 O.2       11 UNK        -0.4999 
     69 C69        34.5975   26.6305    6.5695 C.3       12 UNK        -0.0954 
     70 S70        33.7134   25.0375    6.3859 S.3       12 UNK        -0.2268 
     71 C71        32.1047   25.4396    5.6203 C.3       12 UNK         0.0203 
     72 H72        25.4532   20.6364    1.9771 H         1 UNK         0.0888 
     73 H73        25.3907   19.8558    0.3948 H         1 UNK         0.0888 
     74 H74        26.7442   19.5383    1.4826 H         1 UNK         0.0888 
     75 H75        28.6076   20.6330    0.8534 H         1 UNK         0.3017 
     76 H76        28.6547   22.6314   -1.1080 H         1 UNK         0.0873 
     77 H77        30.5600   21.2209   -0.8811 H         1 UNK         0.0745 
     78 H78        31.0884   22.8422   -0.5779 H         1 UNK         0.0745 
     79 H79        33.3851   21.9401    2.2177 H         1 UNK         0.0705 
     80 H80        33.1725   22.5547    0.6034 H         1 UNK         0.0705 
     81 H81        32.5121   23.1590    4.1953 H         1 UNK         0.1334 
     82 H82        31.7309   27.3401    3.6797 H         1 UNK         0.1417 
     83 H83        32.2081   24.8168    0.2523 H         1 UNK         0.1562 
     84 H84        32.1279   27.1889   -0.0380 H         1 UNK         0.0748 
     85 H85        32.2833   28.2645    1.3274 H         1 UNK         0.0748 
     86 H86        30.3234   29.3858   -0.9545 H         1 UNK         0.0940 
     87 H87        30.3915   27.7416   -1.5230 H         1 UNK         0.0940 
     88 H88        28.4575   28.8617   -2.4379 H         1 UNK         0.0703 
     89 H89        28.0217   26.4822   -0.8368 H         1 UNK         0.3081 
     90 H90        24.9449   25.7065   -2.6122 H         1 UNK         0.0719 
     91 H91        27.7107   24.4067   -2.4238 H         1 UNK         0.0809 
     92 H92        26.2031   23.5381   -2.7091 H         1 UNK         0.0809 
     93 H93        26.7879   24.7058   -3.8846 H         1 UNK         0.0809 
     94 H94        26.1018   24.4208   -0.3693 H         1 UNK         0.2990 
     95 H95        24.4178   26.2735    2.1670 H         1 UNK         0.0690 
     96 H96        23.5431   24.0117    2.7244 H         1 UNK         0.0788 
     97 H97        23.8812   23.4537    1.0861 H         1 UNK         0.0788 
     98 H98        22.6747   24.7002    1.3622 H         1 UNK         0.0788 
     99 H99        26.1441   23.9278    2.0160 H         1 UNK         0.2993 
    100 H100       29.1595   25.7306    2.5969 H         1 UNK         0.0949 
    101 H101       29.3083   24.1825    4.5317 H         1 UNK         0.0767 
    102 H102       28.2002   25.4995    4.8777 H         1 UNK         0.0767 
    103 H103       27.5669   23.9075    4.4763 H         1 UNK         0.0767 
    104 H104       28.6721   22.9490    2.4140 H         1 UNK         0.3013 
    105 H105       26.8916   28.2086    0.6536 H         1 UNK         0.3121 
    106 H106       25.3703   29.1934    1.8374 H         1 UNK         0.0774 
    107 H107       25.0751   31.3096   -0.3566 H         1 UNK         0.0815 
    108 H108       23.9490   31.0140    0.9580 H         1 UNK         0.0815 
    109 H109       24.2007   29.7809   -0.2675 H         1 UNK         0.0815 
    110 H110       27.6354   31.6353    0.5836 H         1 UNK         0.2987 
    111 H111       27.4605   33.3946    2.8792 H         1 UNK         0.0949 
    112 H112       29.5725   33.1813    0.6602 H         1 UNK         0.0806 
    113 H113       28.1395   34.2085    0.6278 H         1 UNK         0.0806 
    114 H114       29.4155   34.5170    1.7936 H         1 UNK         0.0806 
    115 H115       29.3007   30.5572    2.1669 H         1 UNK         0.3010 
    116 H116       30.6907   29.2394    3.1837 H         1 UNK         0.0829 
    117 H117       30.0018   30.6873    5.7841 H         1 UNK         0.0813 
    118 H118       29.1392   29.3118    5.0956 H         1 UNK         0.0813 
    119 H119       30.7935   29.1245    5.6561 H         1 UNK         0.0813 
    120 H120       31.3575   32.5441    4.2579 H         1 UNK         0.3038 
    121 H121       33.1927   33.7554    4.6190 H         1 UNK         0.0769 
    122 H122       35.1789   33.4602    3.1466 H         1 UNK         0.0811 
    123 H123       34.5997   31.8746    2.6321 H         1 UNK         0.0811 
    124 H124       33.6979   33.3248    2.2238 H         1 UNK         0.0811 
    125 H125       35.8387   31.7509    4.3414 H         1 UNK         0.3204 
    126 H126       36.0247   31.2524    7.2607 H         1 UNK         0.0748 
    127 H127       38.4188   30.8954    6.7849 H         1 UNK         0.0771 
    128 H128       38.1371   31.0170    5.0531 H         1 UNK         0.0771 
    129 H129       37.9092   32.4235    6.0929 H         1 UNK         0.0771 
    130 H130       34.2318   29.6859    5.4192 H         1 UNK         0.2980 
    131 H131       33.4980   27.7002    5.0788 H         1 UNK         0.0545 
    132 H132       34.4752   28.6745    3.0088 H         1 UNK         0.3459 
    133 H133       35.5840   27.6311    2.1350 H         1 UNK         0.3459 
    134 H134       35.6334   26.4060    6.8272 H         1 UNK         0.0616 
    135 H135       34.1753   27.1185    7.4492 H         1 UNK         0.0616 
    136 H136       31.7839   26.4398    5.9141 H         1 UNK         0.0634 
    137 H137       31.3569   24.7573    6.0265 H         1 UNK         0.0634 
@<TRIPOS>BOND
     1    1    2 1    
     2    1   72 1    
     3    1   73 1    
     4    1   74 1    
     5    2    3 2    
     6    2    4 am   BACKBONE|DICT|INTERRES
     7    4    5 1    
     8    4   75 1    
     9    5    6 1    
    10    5   35 1    
    11    5   76 1    
    12    6    7 1    
    13    6   77 1    
    14    6   78 1    
    15    7    8 1    
    16    8    9 1    
    17    8   79 1    
    18    8   80 1    
    19    9   10 ar   
    20    9   14 ar   
    21   10   11 ar   
    22   10   81 1    
    23   11   12 ar   
    24   11   71 1    
    25   12   13 ar   
    26   12   82 1    
    27   13   14 ar   
    28   13   15 1    
    29   14   83 1    
    30   15   16 1    
    31   15   84 1    
    32   15   85 1    
    33   16   17 1    
    34   17   18 1    
    35   17   86 1    
    36   17   87 1    
    37   18   19 1    
    38   18   37 1    
    39   18   88 1    
    40   19   20 am   BACKBONE|DICT|INTERRES
    41   19   89 1    
    42   20   21 2    
    43   20   22 1    
    44   22   23 1    
    45   22   24 1    
    46   22   90 1    
    47   23   91 1    
    48   23   92 1    
    49   23   93 1    
    50   24   25 am   BACKBONE|DICT|INTERRES
    51   24   94 1    
    52   25   26 2    
    53   25   27 1    
    54   27   28 1    
    55   27   29 1    
    56   27   95 1    
    57   28   96 1    
    58   28   97 1    
    59   28   98 1    
    60   29   30 am   BACKBONE|DICT|INTERRES
    61   29   99 1    
    62   30   31 2    
    63   30   32 1    
    64   32   33 1    
    65   32   34 1    
    66   32  100 1    
    67   33  101 1    
    68   33  102 1    
    69   33  103 1    
    70   34   35 am   BACKBONE|DICT|INTERRES
    71   34  104 1    
    72   35   36 2    
    73   37   38 2    
    74   37   39 am   BACKBONE|DICT|INTERRES
    75   39   40 1    
    76   39  105 1    
    77   40   41 1    
    78   40   42 1    
    79   40  106 1    
    80   41  107 1    
    81   41  108 1    
    82   41  109 1    
    83   42   43 2    
    84   42   44 am   BACKBONE|DICT|INTERRES
    85   44   45 1    
    86   44  110 1    
    87   45   46 1    
    88   45   47 1    
    89   45  111 1    
    90   46  112 1    
    91   46  113 1    
    92   46  114 1    
    93   47   48 2    
    94   47   49 am   BACKBONE|DICT|INTERRES
    95   49   50 1    
    96   49  115 1    
    97   50   51 1    
    98   50   52 1    
    99   50  116 1    
   100   51  117 1    
   101   51  118 1    
   102   51  119 1    
   103   52   53 2    
   104   52   54 am   BACKBONE|DICT|INTERRES
   105   54   55 1    
   106   54  120 1    
   107   55   56 1    
   108   55   57 1    
   109   55  121 1    
   110   56  122 1    
   111   56  123 1    
   112   56  124 1    
   113   57   58 2    
   114   57   59 am   BACKBONE|DICT|INTERRES
   115   59   60 1    
   116   59  125 1    
   117   60   61 1    
   118   60   62 1    
   119   60  126 1    
   120   61  127 1    
   121   61  128 1    
   122   61  129 1    
   123   62   63 2    
   124   62   64 am   BACKBONE|DICT|INTERRES
   125   64   65 1    
   126   64  130 1    
   127   65   66 1    
   128   65   69 1    
   129   65  131 1    
   130   66   67 am   BACKBONE|DICT|INTERRES
   131   66   68 2    
   132   67  132 1    
   133   67  133 1    
   134   69   70 1    
   135   69  134 1    
   136   69  135 1    
   137   70   71 1    
   138   71  136 1    
   139   71  137 1    
@<TRIPOS>SUBSTRUCTURE
     1 UNK         1 GROUP             0       ****    0 ROOT    
