@<TRIPOS>MOLECULE
3R136
137   139    1
SMALL
USER_CHARGES


@<TRIPOS>ATOM
      1 CA         28.5097   20.2916   -5.5539 C.3       0 UNK        -0.1979 
      2 C          28.6968   20.8932   -4.1691 C.2       0 UNK         0.4864 
      3 O          28.5758   20.1774   -3.1731 O.2       0 UNK        -0.5359 
      4 N          28.9870   22.2011   -4.1015 N.am      1 UNK        -0.4318 
      5 CA         29.1948   23.0113   -2.8936 C.3       1 UNK         0.0824 
      6 C6         30.3603   22.5003   -2.0008 C.3       12 UNK        -0.0944 
      7 S7         30.8316   23.6801   -0.6926 S.3       12 UNK        -0.2672 
      8 C8         30.4890   22.7043    0.8081 C.3       12 UNK         0.0333 
      9 C9         30.7848   23.4821    2.0854 C.ar      12 UNK        -0.0807 
     10 C10        32.0369   24.0782    2.2746 C.ar      12 UNK        -0.0894 
     11 C11        32.3289   24.7696    3.4531 C.ar      12 UNK        -0.0804 
     12 C12        31.3657   24.8281    4.4619 C.ar      12 UNK        -0.0824 
     13 C13        30.1000   24.2671    4.2813 C.ar      12 UNK        -0.0762 
     14 C14        29.8195   23.5809    3.0945 C.ar      12 UNK        -0.0782 
     15 C15        29.0540   24.3845    5.3833 C.3       12 UNK         0.0230 
     16 S16        28.0533   25.9057    5.2426 S.3       12 UNK        -0.2608 
     17 C17        29.2265   27.2303    5.7376 C.3       12 UNK        -0.0989 
     18 CA         29.5207   28.3070    4.6470 C.3       5 UNK         0.0716 
     19 N          29.5179   27.7417    3.2962 N.am      5 UNK        -0.4135 
     20 C          29.6353   28.3767    2.1215 C.2       4 UNK         0.5031 
     21 O          29.8451   29.5843    1.9913 O.2       4 UNK        -0.5229 
     22 CA         29.4683   27.5156    0.8574 C.3       4 UNK         0.0329 
     23 CB         30.8460   27.1155    0.3107 C.3       4 UNK        -0.2001 
     24 N          28.6397   26.3226    1.0867 N.am      4 UNK        -0.4303 
     25 C          27.3148   26.3774    1.2948 C.2       3 UNK         0.5044 
     26 O          26.6455   27.3994    1.1429 O.2       3 UNK        -0.5152 
     27 CA         26.6281   25.0825    1.7449 C.3       3 UNK         0.0319 
     28 CB         25.2316   25.3288    2.3534 C.3       3 UNK        -0.2001 
     29 N          26.5318   24.1639    0.6169 N.am      3 UNK        -0.4354 
     30 C          26.3732   22.8395    0.7048 C.2       2 UNK         0.4964 
     31 O          26.3611   22.2218    1.7697 O.2       2 UNK        -0.5047 
     32 CA         26.2017   22.0651   -0.6144 C.3       2 UNK         0.0288 
     33 CB         24.8955   22.4516   -1.3380 C.3       2 UNK        -0.2113 
     34 N          27.3627   22.1551   -1.5070 N.am      2 UNK        -0.4145 
     35 C          27.8848   23.2321   -2.1101 C.2       1 UNK         0.5006 
     36 O          27.3906   24.3607   -2.0633 O.2       1 UNK        -0.5103 
     37 C          28.5824   29.5263    4.7774 C.2       5 UNK         0.5055 
     38 O          27.3623   29.3623    4.8299 O.2       5 UNK        -0.5220 
     39 N          29.1885   30.7211    4.8123 N.am      6 UNK        -0.4450 
     40 CA         28.5798   32.0530    4.9085 C.3       6 UNK         0.0367 
     41 CB         27.7499   32.2015    6.2014 C.3       6 UNK        -0.1929 
     42 C          27.7992   32.4878    3.6514 C.2       6 UNK         0.5070 
     43 O          27.1003   33.5011    3.7034 O.2       6 UNK        -0.5237 
     44 N          27.9454   31.7500    2.5439 N.am      7 UNK        -0.4739 
     45 CA         27.3458   32.0549    1.2438 C.3       7 UNK         0.0276 
     46 CB         26.5515   30.8354    0.7510 C.3       7 UNK        -0.1927 
     47 C          28.4222   32.4393    0.2204 C.2       7 UNK         0.5013 
     48 O          28.2133   33.3812   -0.5451 O.2       7 UNK        -0.5193 
     49 N          29.5465   31.7117    0.2268 N.am      8 UNK        -0.4253 
     50 CA         30.6813   31.9031   -0.6768 C.3       8 UNK         0.0242 
     51 CB         30.6822   30.7806   -1.7286 C.3       8 UNK        -0.2000 
     52 C          32.0269   31.9524    0.0647 C.2       8 UNK         0.4948 
     53 O          32.9767   32.5149   -0.4826 O.2       8 UNK        -0.5275 
     54 N          32.1078   31.3844    1.2751 N.am      9 UNK        -0.4246 
     55 CA         33.3076   31.3624    2.1082 C.3       9 UNK         0.0261 
     56 CB         34.1516   30.1256    1.7535 C.3       9 UNK        -0.1959 
     57 C          32.8972   31.3480    3.5839 C.2       9 UNK         0.5033 
     58 O          31.7776   30.9437    3.9027 O.2       9 UNK        -0.5390 
     59 N          33.8060   31.7816    4.4663 N.am      10 UNK        -0.4215 
     60 CA         33.5937   31.7789    5.9173 C.3       10 UNK         0.0240 
     61 CB         34.6770   32.6259    6.6058 C.3       10 UNK        -0.1982 
     62 C          33.5541   30.3566    6.5019 C.2       10 UNK         0.4970 
     63 O          32.6719   30.0629    7.3099 O.2       10 UNK        -0.4916 
     64 N          34.4954   29.5099    6.0587 N.am      11 UNK        -0.4279 
     65 CA         34.6551   28.1003    6.4548 C.3       11 UNK         0.1003 
     66 C          34.9123   27.9163    7.9847 C.2       11 UNK         0.5709 
     67 N          34.6227   26.7552    8.5583 N.am      11 UNK        -0.7358 
     68 O          35.4378   28.8047    8.6541 O.2       11 UNK        -0.4999 
     69 C69        33.5252   27.2009    5.8705 C.3       12 UNK        -0.0954 
     70 S70        33.5171   27.2195    4.0424 S.3       12 UNK        -0.2268 
     71 C71        33.6825   25.4486    3.6305 C.3       12 UNK         0.0203 
     72 H72        27.5066   19.8768   -5.6496 H         1 UNK         0.0888 
     73 H73        28.6482   21.0305   -6.3430 H         1 UNK         0.0888 
     74 H74        29.2277   19.4875   -5.7128 H         1 UNK         0.0888 
     75 H75        29.0445   22.7220   -4.9662 H         1 UNK         0.3017 
     76 H76        29.4911   23.9938   -3.2658 H         1 UNK         0.0873 
     77 H77        30.1288   21.5314   -1.5564 H         1 UNK         0.0745 
     78 H78        31.2443   22.3350   -2.6185 H         1 UNK         0.0745 
     79 H79        31.1013   21.8015    0.7968 H         1 UNK         0.0705 
     80 H80        29.4484   22.3774    0.7877 H         1 UNK         0.0705 
     81 H81        32.7832   24.0075    1.4949 H         1 UNK         0.1334 
     82 H82        31.6026   25.3243    5.3889 H         1 UNK         0.1417 
     83 H83        28.8561   23.1060    2.9659 H         1 UNK         0.1562 
     84 H84        29.5294   24.3500    6.3649 H         1 UNK         0.0748 
     85 H85        28.3833   23.5247    5.3453 H         1 UNK         0.0748 
     86 H86        30.1624   26.7785    6.0553 H         1 UNK         0.0940 
     87 H87        28.8425   27.6912    6.6503 H         1 UNK         0.0940 
     88 H88        30.5395   28.6621    4.8179 H         1 UNK         0.0703 
     89 H89        29.3273   26.7514    3.2696 H         1 UNK         0.3081 
     90 H90        28.9772   28.1359    0.1045 H         1 UNK         0.0719 
     91 H91        31.3652   26.4329    0.9822 H         1 UNK         0.0809 
     92 H92        30.7601   26.6377   -0.6646 H         1 UNK         0.0809 
     93 H93        31.4883   27.9882    0.1849 H         1 UNK         0.0809 
     94 H94        29.1227   25.4388    1.1705 H         1 UNK         0.2990 
     95 H95        27.2521   24.6398    2.5204 H         1 UNK         0.0690 
     96 H96        24.8069   24.4124    2.7632 H         1 UNK         0.0788 
     97 H97        24.5327   25.7207    1.6135 H         1 UNK         0.0788 
     98 H98        25.2858   26.0505    3.1698 H         1 UNK         0.0788 
     99 H99        26.6192   24.5700   -0.3125 H         1 UNK         0.2993 
    100 H100       26.1203   21.0104   -0.3458 H         1 UNK         0.0949 
    101 H101       24.8914   23.4932   -1.6599 H         1 UNK         0.0767 
    102 H102       24.7357   21.8304   -2.2194 H         1 UNK         0.0767 
    103 H103       24.0341   22.3125   -0.6835 H         1 UNK         0.0767 
    104 H104       27.8322   21.2743   -1.7005 H         1 UNK         0.3013 
    105 H105       30.1947   30.7357    4.6254 H         1 UNK         0.3121 
    106 H106       29.4196   32.7456    4.9817 H         1 UNK         0.0774 
    107 H107       27.4440   33.2373    6.3527 H         1 UNK         0.0815 
    108 H108       26.8419   31.5989    6.1726 H         1 UNK         0.0815 
    109 H109       28.3244   31.9042    7.0785 H         1 UNK         0.0815 
    110 H110       28.5569   30.9407    2.5868 H         1 UNK         0.2987 
    111 H111       26.6545   32.8964    1.3274 H         1 UNK         0.0949 
    112 H112       26.0626   31.0458   -0.2011 H         1 UNK         0.0806 
    113 H113       27.1939   29.9673    0.6026 H         1 UNK         0.0806 
    114 H114       25.7739   30.5544    1.4615 H         1 UNK         0.0806 
    115 H115       29.6205   30.9392    0.8856 H         1 UNK         0.3010 
    116 H116       30.5847   32.8582   -1.1977 H         1 UNK         0.0829 
    117 H117       29.7693   30.7971   -2.3242 H         1 UNK         0.0813 
    118 H118       31.5207   30.8893   -2.4179 H         1 UNK         0.0813 
    119 H119       30.7625   29.7963   -1.2675 H         1 UNK         0.0813 
    120 H120       31.3013   30.9354    1.7001 H         1 UNK         0.3038 
    121 H121       33.8936   32.2674    1.9333 H         1 UNK         0.0769 
    122 H122       33.5680   29.2087    1.8406 H         1 UNK         0.0811 
    123 H123       35.0168   30.0287    2.4103 H         1 UNK         0.0811 
    124 H124       34.5259   30.1834    0.7314 H         1 UNK         0.0811 
    125 H125       34.7005   32.1101    4.1311 H         1 UNK         0.3204 
    126 H126       32.6257   32.2443    6.1175 H         1 UNK         0.0748 
    127 H127       34.5276   32.6441    7.6864 H         1 UNK         0.0771 
    128 H128       35.6787   32.2351    6.4228 H         1 UNK         0.0771 
    129 H129       34.6512   33.6595    6.2598 H         1 UNK         0.0771 
    130 H130       35.1816   29.8566    5.4067 H         1 UNK         0.2980 
    131 H131       35.5905   27.7804    5.9946 H         1 UNK         0.0545 
    132 H132       34.2182   25.9976    8.0324 H         1 UNK         0.3459 
    133 H133       34.8140   26.6367    9.5409 H         1 UNK         0.3459 
    134 H134       32.5485   27.5280    6.2285 H         1 UNK         0.0616 
    135 H135       33.6422   26.1699    6.2026 H         1 UNK         0.0616 
    136 H136       34.2638   24.9262    4.3909 H         1 UNK         0.0634 
    137 H137       34.2605   25.3786    2.7080 H         1 UNK         0.0634 
@<TRIPOS>BOND
     1    1    2 1    
     2    1   72 1    
     3    1   73 1    
     4    1   74 1    
     5    2    3 2    
     6    2    4 am   BACKBONE|DICT|INTERRES
     7    4    5 1    
     8    4   75 1    
     9    5    6 1    
    10    5   35 1    
    11    5   76 1    
    12    6    7 1    
    13    6   77 1    
    14    6   78 1    
    15    7    8 1    
    16    8    9 1    
    17    8   79 1    
    18    8   80 1    
    19    9   10 ar   
    20    9   14 ar   
    21   10   11 ar   
    22   10   81 1    
    23   11   12 ar   
    24   11   71 1    
    25   12   13 ar   
    26   12   82 1    
    27   13   14 ar   
    28   13   15 1    
    29   14   83 1    
    30   15   16 1    
    31   15   84 1    
    32   15   85 1    
    33   16   17 1    
    34   17   18 1    
    35   17   86 1    
    36   17   87 1    
    37   18   19 1    
    38   18   37 1    
    39   18   88 1    
    40   19   20 am   BACKBONE|DICT|INTERRES
    41   19   89 1    
    42   20   21 2    
    43   20   22 1    
    44   22   23 1    
    45   22   24 1    
    46   22   90 1    
    47   23   91 1    
    48   23   92 1    
    49   23   93 1    
    50   24   25 am   BACKBONE|DICT|INTERRES
    51   24   94 1    
    52   25   26 2    
    53   25   27 1    
    54   27   28 1    
    55   27   29 1    
    56   27   95 1    
    57   28   96 1    
    58   28   97 1    
    59   28   98 1    
    60   29   30 am   BACKBONE|DICT|INTERRES
    61   29   99 1    
    62   30   31 2    
    63   30   32 1    
    64   32   33 1    
    65   32   34 1    
    66   32  100 1    
    67   33  101 1    
    68   33  102 1    
    69   33  103 1    
    70   34   35 am   BACKBONE|DICT|INTERRES
    71   34  104 1    
    72   35   36 2    
    73   37   38 2    
    74   37   39 am   BACKBONE|DICT|INTERRES
    75   39   40 1    
    76   39  105 1    
    77   40   41 1    
    78   40   42 1    
    79   40  106 1    
    80   41  107 1    
    81   41  108 1    
    82   41  109 1    
    83   42   43 2    
    84   42   44 am   BACKBONE|DICT|INTERRES
    85   44   45 1    
    86   44  110 1    
    87   45   46 1    
    88   45   47 1    
    89   45  111 1    
    90   46  112 1    
    91   46  113 1    
    92   46  114 1    
    93   47   48 2    
    94   47   49 am   BACKBONE|DICT|INTERRES
    95   49   50 1    
    96   49  115 1    
    97   50   51 1    
    98   50   52 1    
    99   50  116 1    
   100   51  117 1    
   101   51  118 1    
   102   51  119 1    
   103   52   53 2    
   104   52   54 am   BACKBONE|DICT|INTERRES
   105   54   55 1    
   106   54  120 1    
   107   55   56 1    
   108   55   57 1    
   109   55  121 1    
   110   56  122 1    
   111   56  123 1    
   112   56  124 1    
   113   57   58 2    
   114   57   59 am   BACKBONE|DICT|INTERRES
   115   59   60 1    
   116   59  125 1    
   117   60   61 1    
   118   60   62 1    
   119   60  126 1    
   120   61  127 1    
   121   61  128 1    
   122   61  129 1    
   123   62   63 2    
   124   62   64 am   BACKBONE|DICT|INTERRES
   125   64   65 1    
   126   64  130 1    
   127   65   66 1    
   128   65   69 1    
   129   65  131 1    
   130   66   67 am   BACKBONE|DICT|INTERRES
   131   66   68 2    
   132   67  132 1    
   133   67  133 1    
   134   69   70 1    
   135   69  134 1    
   136   69  135 1    
   137   70   71 1    
   138   71  136 1    
   139   71  137 1    
@<TRIPOS>SUBSTRUCTURE
     1 UNK         1 GROUP             0       ****    0 ROOT    
