@<TRIPOS>MOLECULE
3R136
137   139    1
SMALL
USER_CHARGES


@<TRIPOS>ATOM
      1 CA         29.3453   19.5251   -1.5952 C.3       0 UNK        -0.1979 
      2 C          28.9519   20.7719   -0.8187 C.2       0 UNK         0.4864 
      3 O          28.9611   21.8707   -1.3755 O.2       0 UNK        -0.5359 
      4 N          28.5909   20.6165    0.4617 N.am      1 UNK        -0.4318 
      5 CA         28.2288   21.6974    1.3901 C.3       1 UNK         0.0824 
      6 C6         28.4713   21.3015    2.8716 C.3       12 UNK        -0.0944 
      7 S7         30.1532   20.6631    3.1872 S.3       12 UNK        -0.2672 
      8 C8         30.9682   22.0868    3.9926 C.3       12 UNK         0.0333 
      9 C9         31.3629   23.2428    3.0697 C.ar      12 UNK        -0.0807 
     10 C10        31.6262   24.4902    3.6442 C.ar      12 UNK        -0.0894 
     11 C11        32.0428   25.5677    2.8583 C.ar      12 UNK        -0.0804 
     12 C12        32.1911   25.3957    1.4799 C.ar      12 UNK        -0.0824 
     13 C13        31.9013   24.1663    0.8781 C.ar      12 UNK        -0.0762 
     14 C14        31.5129   23.0911    1.6838 C.ar      12 UNK        -0.0782 
     15 C15        32.0391   23.9584   -0.6299 C.3       12 UNK         0.0230 
     16 S16        31.5544   25.3934   -1.6530 S.3       12 UNK        -0.2608 
     17 C17        29.7461   25.4779   -1.4107 C.3       12 UNK        -0.0989 
     18 CA         29.2717   26.9219   -1.0882 C.3       5 UNK         0.0716 
     19 N          27.8932   27.1544   -1.5236 N.am      5 UNK        -0.4135 
     20 C          27.4529   28.2695   -2.1236 C.2       4 UNK         0.5031 
     21 O          28.1757   29.2223   -2.4185 O.2       4 UNK        -0.5229 
     22 CA         25.9532   28.3428   -2.4739 C.3       4 UNK         0.0329 
     23 CB         25.7220   27.8973   -3.9271 C.3       4 UNK        -0.2001 
     24 N          25.1049   27.5433   -1.5876 N.am      4 UNK        -0.4303 
     25 C          24.8565   27.8334   -0.3027 C.2       3 UNK         0.5044 
     26 O          25.2434   28.8613    0.2531 O.2       3 UNK        -0.5152 
     27 CA         24.0664   26.7890    0.5118 C.3       3 UNK         0.0319 
     28 CB         22.5765   27.1645    0.5582 C.3       3 UNK        -0.2001 
     29 N          24.1993   25.3979    0.0507 N.am      3 UNK        -0.4354 
     30 C          25.3555   24.7361   -0.0928 C.2       2 UNK         0.4964 
     31 O          26.4632   25.2594    0.0462 O.2       2 UNK        -0.5047 
     32 CA         25.2713   23.2633   -0.5179 C.3       2 UNK         0.0288 
     33 CB         25.1244   23.1555   -2.0443 C.3       2 UNK        -0.2113 
     34 N          26.4832   22.5533   -0.1108 N.am      2 UNK        -0.4145 
     35 C          26.7933   22.2193    1.1480 C.2       1 UNK         0.5006 
     36 O          25.9994   22.3161    2.0868 O.2       1 UNK        -0.5103 
     37 C          29.4193   27.2468    0.4085 C.2       5 UNK         0.5055 
     38 O          30.3750   27.9262    0.7856 O.2       5 UNK        -0.5220 
     39 N          28.4762   26.7561    1.2273 N.am      6 UNK        -0.4450 
     40 CA         28.4600   26.8054    2.6915 C.3       6 UNK         0.0367 
     41 CB         27.4433   25.7709    3.2082 C.3       6 UNK        -0.1929 
     42 C          28.2256   28.2142    3.2736 C.2       6 UNK         0.5070 
     43 O          27.2413   28.4439    3.9793 O.2       6 UNK        -0.5237 
     44 N          29.1499   29.1303    2.9739 N.am      7 UNK        -0.4739 
     45 CA         29.2559   30.4692    3.5503 C.3       7 UNK         0.0276 
     46 CB         30.1711   31.3085    2.6424 C.3       7 UNK        -0.1927 
     47 C          29.7992   30.4359    4.9928 C.2       7 UNK         0.5013 
     48 O          30.2439   29.3880    5.4685 O.2       7 UNK        -0.5193 
     49 N          29.7635   31.6012    5.6527 N.am      8 UNK        -0.4253 
     50 CA         30.3147   31.8328    6.9894 C.3       8 UNK         0.0242 
     51 CB         29.4993   32.9460    7.6807 C.3       8 UNK        -0.2000 
     52 C          31.8283   32.1188    6.9068 C.2       8 UNK         0.4948 
     53 O          32.5898   31.2355    6.5127 O.2       8 UNK        -0.5275 
     54 N          32.2522   33.3415    7.2634 N.am      9 UNK        -0.4246 
     55 CA         33.6554   33.7787    7.3237 C.3       9 UNK         0.0261 
     56 CB         33.7143   35.2343    7.8141 C.3       9 UNK        -0.1959 
     57 C          34.4404   33.6242    6.0071 C.2       9 UNK         0.5033 
     58 O          35.6482   33.3842    6.0493 O.2       9 UNK        -0.5390 
     59 N          33.7399   33.7121    4.8670 N.am      10 UNK        -0.4215 
     60 CA         34.2807   33.4816    3.5238 C.3       10 UNK         0.0240 
     61 CB         33.2326   33.8903    2.4765 C.3       10 UNK        -0.1982 
     62 C          34.7725   32.0407    3.2736 C.2       10 UNK         0.4970 
     63 O          35.5459   31.8386    2.3366 O.2       10 UNK        -0.4916 
     64 N          34.3502   31.0765    4.1059 N.am      11 UNK        -0.4279 
     65 CA         34.8936   29.7100    4.1314 C.3       11 UNK         0.1003 
     66 C          36.3455   29.6166    4.6955 C.2       11 UNK         0.5709 
     67 N          36.8727   30.6377    5.3648 N.am      11 UNK        -0.7358 
     68 O          37.0164   28.6048    4.5089 O.2       11 UNK        -0.4999 
     69 C69        33.9256   28.7415    4.8651 C.3       12 UNK        -0.0954 
     70 S70        33.9647   27.0421    4.2000 S.3       12 UNK        -0.2268 
     71 C71        32.2953   26.9265    3.4943 C.3       12 UNK         0.0203 
     72 H72        29.2955   18.6281   -0.9783 H         1 UNK         0.0888 
     73 H73        28.6805   19.3893   -2.4477 H         1 UNK         0.0888 
     74 H74        30.3640   19.6237   -1.9690 H         1 UNK         0.0888 
     75 H75        28.5860   19.6894    0.8629 H         1 UNK         0.3017 
     76 H76        28.8760   22.5500    1.1783 H         1 UNK         0.0873 
     77 H77        27.7655   20.5264    3.1762 H         1 UNK         0.0745 
     78 H78        28.2847   22.1533    3.5285 H         1 UNK         0.0745 
     79 H79        30.3226   22.4521    4.7929 H         1 UNK         0.0705 
     80 H80        31.8751   21.7224    4.4767 H         1 UNK         0.0705 
     81 H81        31.5182   24.6239    4.7122 H         1 UNK         0.1334 
     82 H82        32.5118   26.2317    0.8738 H         1 UNK         0.1417 
     83 H83        31.3318   22.1316    1.2205 H         1 UNK         0.1562 
     84 H84        31.4520   23.0969   -0.9522 H         1 UNK         0.0748 
     85 H85        33.0806   23.7182   -0.8464 H         1 UNK         0.0748 
     86 H86        29.4231   24.7611   -0.6520 H         1 UNK         0.0940 
     87 H87        29.2934   25.1350   -2.3426 H         1 UNK         0.0940 
     88 H88        29.9211   27.6135   -1.6298 H         1 UNK         0.0703 
     89 H89        27.2189   26.4465   -1.2519 H         1 UNK         0.3081 
     90 H90        25.6465   29.3873   -2.3848 H         1 UNK         0.0719 
     91 H91        26.3202   28.4939   -4.6175 H         1 UNK         0.0809 
     92 H92        25.9954   26.8523   -4.0790 H         1 UNK         0.0809 
     93 H93        24.6786   28.0185   -4.2187 H         1 UNK         0.0809 
     94 H94        24.7296   26.6847   -1.9630 H         1 UNK         0.2990 
     95 H95        24.4559   26.8255    1.5312 H         1 UNK         0.0690 
     96 H96        22.4411   28.1842    0.9223 H         1 UNK         0.0788 
     97 H97        22.0213   26.5086    1.2291 H         1 UNK         0.0788 
     98 H98        22.1149   27.1069   -0.4284 H         1 UNK         0.0788 
     99 H99        23.3359   24.8992   -0.1123 H         1 UNK         0.2993 
    100 H100       24.4087   22.7998   -0.0343 H         1 UNK         0.0949 
    101 H101       25.0673   22.1143   -2.3626 H         1 UNK         0.0767 
    102 H102       24.2144   23.6481   -2.3895 H         1 UNK         0.0767 
    103 H103       25.9651   23.6174   -2.5646 H         1 UNK         0.0767 
    104 H104       27.2216   22.4622   -0.8035 H         1 UNK         0.3013 
    105 H105       27.7152   26.2251    0.8065 H         1 UNK         0.3121 
    106 H106       29.4416   26.4877    3.0412 H         1 UNK         0.0774 
    107 H107       27.4332   25.7417    4.2985 H         1 UNK         0.0815 
    108 H108       26.4305   26.0010    2.8766 H         1 UNK         0.0815 
    109 H109       27.6892   24.7670    2.8621 H         1 UNK         0.0815 
    110 H110       29.8845   28.8448    2.3307 H         1 UNK         0.2987 
    111 H111       28.2597   30.9169    3.5677 H         1 UNK         0.0949 
    112 H112       30.1899   32.3512    2.9592 H         1 UNK         0.0806 
    113 H113       31.1979   30.9391    2.6544 H         1 UNK         0.0806 
    114 H114       29.8245   31.2964    1.6087 H         1 UNK         0.0806 
    115 H115       29.3899   32.4104    5.1781 H         1 UNK         0.3010 
    116 H116       30.2012   30.9238    7.5842 H         1 UNK         0.0829 
    117 H117       29.5262   33.8861    7.1281 H         1 UNK         0.0813 
    118 H118       28.4528   32.6556    7.7774 H         1 UNK         0.0813 
    119 H119       29.8647   33.1369    8.6910 H         1 UNK         0.0813 
    120 H120       31.5609   34.0102    7.5715 H         1 UNK         0.3038 
    121 H121       34.1538   33.1503    8.0647 H         1 UNK         0.0769 
    122 H122       33.1954   35.9115    7.1344 H         1 UNK         0.0811 
    123 H123       34.7467   35.5788    7.8916 H         1 UNK         0.0811 
    124 H124       33.2664   35.3400    8.8024 H         1 UNK         0.0811 
    125 H125       32.7525   33.9100    4.9340 H         1 UNK         0.3204 
    126 H126       35.1477   34.1351    3.4058 H         1 UNK         0.0748 
    127 H127       33.6231   33.7698    1.4649 H         1 UNK         0.0771 
    128 H128       32.3314   33.2838    2.5503 H         1 UNK         0.0771 
    129 H129       32.9458   34.9363    2.5873 H         1 UNK         0.0771 
    130 H130       33.7257   31.3103    4.8717 H         1 UNK         0.2980 
    131 H131       34.9545   29.3905    3.0892 H         1 UNK         0.0545 
    132 H132       37.8145   30.5584    5.7136 H         1 UNK         0.3459 
    133 H133       36.3491   31.4902    5.5248 H         1 UNK         0.3459 
    134 H134       32.9012   29.1077    4.7838 H         1 UNK         0.0616 
    135 H135       34.1306   28.7106    5.9369 H         1 UNK         0.0616 
    136 H136       31.5591   27.1087    4.2790 H         1 UNK         0.0634 
    137 H137       32.1652   27.7222    2.7596 H         1 UNK         0.0634 
@<TRIPOS>BOND
     1    1    2 1    
     2    1   72 1    
     3    1   73 1    
     4    1   74 1    
     5    2    3 2    
     6    2    4 am   BACKBONE|DICT|INTERRES
     7    4    5 1    
     8    4   75 1    
     9    5    6 1    
    10    5   35 1    
    11    5   76 1    
    12    6    7 1    
    13    6   77 1    
    14    6   78 1    
    15    7    8 1    
    16    8    9 1    
    17    8   79 1    
    18    8   80 1    
    19    9   10 ar   
    20    9   14 ar   
    21   10   11 ar   
    22   10   81 1    
    23   11   12 ar   
    24   11   71 1    
    25   12   13 ar   
    26   12   82 1    
    27   13   14 ar   
    28   13   15 1    
    29   14   83 1    
    30   15   16 1    
    31   15   84 1    
    32   15   85 1    
    33   16   17 1    
    34   17   18 1    
    35   17   86 1    
    36   17   87 1    
    37   18   19 1    
    38   18   37 1    
    39   18   88 1    
    40   19   20 am   BACKBONE|DICT|INTERRES
    41   19   89 1    
    42   20   21 2    
    43   20   22 1    
    44   22   23 1    
    45   22   24 1    
    46   22   90 1    
    47   23   91 1    
    48   23   92 1    
    49   23   93 1    
    50   24   25 am   BACKBONE|DICT|INTERRES
    51   24   94 1    
    52   25   26 2    
    53   25   27 1    
    54   27   28 1    
    55   27   29 1    
    56   27   95 1    
    57   28   96 1    
    58   28   97 1    
    59   28   98 1    
    60   29   30 am   BACKBONE|DICT|INTERRES
    61   29   99 1    
    62   30   31 2    
    63   30   32 1    
    64   32   33 1    
    65   32   34 1    
    66   32  100 1    
    67   33  101 1    
    68   33  102 1    
    69   33  103 1    
    70   34   35 am   BACKBONE|DICT|INTERRES
    71   34  104 1    
    72   35   36 2    
    73   37   38 2    
    74   37   39 am   BACKBONE|DICT|INTERRES
    75   39   40 1    
    76   39  105 1    
    77   40   41 1    
    78   40   42 1    
    79   40  106 1    
    80   41  107 1    
    81   41  108 1    
    82   41  109 1    
    83   42   43 2    
    84   42   44 am   BACKBONE|DICT|INTERRES
    85   44   45 1    
    86   44  110 1    
    87   45   46 1    
    88   45   47 1    
    89   45  111 1    
    90   46  112 1    
    91   46  113 1    
    92   46  114 1    
    93   47   48 2    
    94   47   49 am   BACKBONE|DICT|INTERRES
    95   49   50 1    
    96   49  115 1    
    97   50   51 1    
    98   50   52 1    
    99   50  116 1    
   100   51  117 1    
   101   51  118 1    
   102   51  119 1    
   103   52   53 2    
   104   52   54 am   BACKBONE|DICT|INTERRES
   105   54   55 1    
   106   54  120 1    
   107   55   56 1    
   108   55   57 1    
   109   55  121 1    
   110   56  122 1    
   111   56  123 1    
   112   56  124 1    
   113   57   58 2    
   114   57   59 am   BACKBONE|DICT|INTERRES
   115   59   60 1    
   116   59  125 1    
   117   60   61 1    
   118   60   62 1    
   119   60  126 1    
   120   61  127 1    
   121   61  128 1    
   122   61  129 1    
   123   62   63 2    
   124   62   64 am   BACKBONE|DICT|INTERRES
   125   64   65 1    
   126   64  130 1    
   127   65   66 1    
   128   65   69 1    
   129   65  131 1    
   130   66   67 am   BACKBONE|DICT|INTERRES
   131   66   68 2    
   132   67  132 1    
   133   67  133 1    
   134   69   70 1    
   135   69  134 1    
   136   69  135 1    
   137   70   71 1    
   138   71  136 1    
   139   71  137 1    
@<TRIPOS>SUBSTRUCTURE
     1 UNK         1 GROUP             0       ****    0 ROOT    
