@<TRIPOS>MOLECULE
3R136
137   139    1
SMALL
USER_CHARGES


@<TRIPOS>ATOM
      1 CA         28.1617   22.0616    3.8046 C.3       0 UNK        -0.1979 
      2 C          28.3745   21.4366    2.4365 C.2       0 UNK         0.4864 
      3 O          27.4386   20.8754    1.8654 O.2       0 UNK        -0.5359 
      4 N          29.6026   21.5303    1.9070 N.am      1 UNK        -0.4318 
      5 CA         29.9898   20.9918    0.5933 C.3       1 UNK         0.0824 
      6 C6         31.5258   20.9221    0.3992 C.3       12 UNK        -0.0944 
      7 S7         32.3792   20.1372    1.8112 S.3       12 UNK        -0.2672 
      8 C8         33.6656   21.3621    2.2236 C.3       12 UNK         0.0333 
      9 C9         33.1088   22.7504    2.5217 C.ar      12 UNK        -0.0807 
     10 C10        33.4310   23.8242    1.6857 C.ar      12 UNK        -0.0894 
     11 C11        32.9701   25.1102    1.9749 C.ar      12 UNK        -0.0804 
     12 C12        32.1836   25.3179    3.1097 C.ar      12 UNK        -0.0824 
     13 C13        31.8111   24.2494    3.9345 C.ar      12 UNK        -0.0762 
     14 C14        32.2964   22.9697    3.6396 C.ar      12 UNK        -0.0782 
     15 C15        30.9041   24.4225    5.1555 C.3       12 UNK         0.0230 
     16 S16        30.1288   26.0628    5.3826 S.3       12 UNK        -0.2608 
     17 C17        29.0384   26.2539    3.9228 C.3       12 UNK        -0.0989 
     18 CA         28.9181   27.7429    3.4943 C.3       5 UNK         0.0716 
     19 N          28.5320   27.8919    2.0825 N.am      5 UNK        -0.4135 
     20 C          28.4124   29.0695    1.4409 C.2       4 UNK         0.5031 
     21 O          28.6965   30.1530    1.9496 O.2       4 UNK        -0.5229 
     22 CA         27.7882   29.0809    0.0317 C.3       4 UNK         0.0329 
     23 CB         28.8694   29.2443   -1.0465 C.3       4 UNK        -0.2001 
     24 N          26.9690   27.9110   -0.2848 N.am      4 UNK        -0.4303 
     25 C          25.9038   27.4775    0.4054 C.2       3 UNK         0.5044 
     26 O          25.4420   28.0563    1.3889 O.2       3 UNK        -0.5152 
     27 CA         25.2963   26.1338   -0.0382 C.3       3 UNK         0.0319 
     28 CB         24.0588   26.3692   -0.9183 C.3       3 UNK        -0.2001 
     29 N          26.2404   25.2585   -0.7480 N.am      3 UNK        -0.4354 
     30 C          27.3870   24.7901   -0.2351 C.2       2 UNK         0.4964 
     31 O          27.7943   25.0551    0.9014 O.2       2 UNK        -0.5047 
     32 CA         28.2500   23.9345   -1.1663 C.3       2 UNK         0.0288 
     33 CB         29.1859   24.8156   -2.0114 C.3       2 UNK        -0.2113 
     34 N          29.0403   23.0529   -0.3228 N.am      2 UNK        -0.4145 
     35 C          29.3378   21.7725   -0.5674 C.2       1 UNK         0.5006 
     36 O          29.1049   21.2022   -1.6348 O.2       1 UNK        -0.5103 
     37 C          27.9940   28.5318    4.4569 C.2       5 UNK         0.5055 
     38 O          28.4618   29.0094    5.4916 O.2       5 UNK        -0.5220 
     39 N          26.7103   28.6903    4.0917 N.am      6 UNK        -0.4450 
     40 CA         25.7392   29.4959    4.8359 C.3       6 UNK         0.0367 
     41 CB         24.3194   29.1610    4.3520 C.3       6 UNK        -0.1929 
     42 C          25.9968   31.0116    4.7367 C.2       6 UNK         0.5070 
     43 O          25.5665   31.7442    5.6280 O.2       6 UNK        -0.5237 
     44 N          26.6794   31.4616    3.6732 N.am      7 UNK        -0.4739 
     45 CA         27.0962   32.8530    3.4964 C.3       7 UNK         0.0276 
     46 CB         27.1956   33.1918    1.9991 C.3       7 UNK        -0.1927 
     47 C          28.4251   33.1152    4.2189 C.2       7 UNK         0.5013 
     48 O          28.5166   34.0835    4.9748 O.2       7 UNK        -0.5193 
     49 N          29.4155   32.2403    4.0020 N.am      8 UNK        -0.4253 
     50 CA         30.7160   32.2656    4.6668 C.3       8 UNK         0.0242 
     51 CB         31.6104   33.3685    4.0676 C.3       8 UNK        -0.2000 
     52 C          31.3766   30.8979    4.4963 C.2       8 UNK         0.4948 
     53 O          31.3163   30.3354    3.4040 O.2       8 UNK        -0.5275 
     54 N          32.0625   30.4140    5.5403 N.am      9 UNK        -0.4246 
     55 CA         32.7361   29.1067    5.5695 C.3       9 UNK         0.0261 
     56 CB         33.2644   28.8414    6.9877 C.3       9 UNK        -0.1959 
     57 C          33.8592   28.9216    4.5287 C.2       9 UNK         0.5033 
     58 O          34.2369   27.7850    4.2488 O.2       9 UNK        -0.5390 
     59 N          34.3638   30.0280    3.9678 N.am      10 UNK        -0.4215 
     60 CA         35.3058   30.0482    2.8482 C.3       10 UNK         0.0240 
     61 CB         36.0709   31.3827    2.8751 C.3       10 UNK        -0.1982 
     62 C          34.6354   29.8394    1.4741 C.2       10 UNK         0.4970 
     63 O          35.3601   29.6642    0.4940 O.2       10 UNK        -0.4916 
     64 N          33.2948   29.8870    1.4079 N.am      11 UNK        -0.4279 
     65 CA         32.4754   29.8229    0.1835 C.3       11 UNK         0.1003 
     66 C          32.6445   31.0461   -0.7708 C.2       11 UNK         0.5709 
     67 N          33.1847   32.1710   -0.3158 N.am      11 UNK        -0.7358 
     68 O          32.2486   30.9959   -1.9329 O.2       11 UNK        -0.4999 
     69 C69        32.5687   28.4528   -0.5534 C.3       12 UNK        -0.0954 
     70 S70        31.8410   27.0909    0.4127 S.3       12 UNK        -0.2268 
     71 C71        33.3299   26.2846    1.0773 C.3       12 UNK         0.0203 
     72 H72        28.1799   23.1486    3.7302 H         1 UNK         0.0888 
     73 H73        27.1967   21.7668    4.2168 H         1 UNK         0.0888 
     74 H74        28.9350   21.7372    4.5002 H         1 UNK         0.0888 
     75 H75        30.3444   21.9804    2.4246 H         1 UNK         0.3017 
     76 H76        29.6059   19.9706    0.5403 H         1 UNK         0.0873 
     77 H77        31.7630   20.3442   -0.4960 H         1 UNK         0.0745 
     78 H78        31.9361   21.9173    0.2241 H         1 UNK         0.0745 
     79 H79        34.2201   21.0081    3.0937 H         1 UNK         0.0705 
     80 H80        34.3836   21.4012    1.4028 H         1 UNK         0.0705 
     81 H81        34.0530   23.6617    0.8159 H         1 UNK         0.1334 
     82 H82        31.8573   26.3247    3.3264 H         1 UNK         0.1417 
     83 H83        32.0465   22.1376    4.2847 H         1 UNK         0.1562 
     84 H84        31.4952   24.2107    6.0474 H         1 UNK         0.0748 
     85 H85        30.1137   23.6748    5.1325 H         1 UNK         0.0748 
     86 H86        28.0604   25.8193    4.1381 H         1 UNK         0.0940 
     87 H87        29.4464   25.6628    3.1023 H         1 UNK         0.0940 
     88 H88        29.9102   28.1900    3.5684 H         1 UNK         0.0703 
     89 H89        28.2734   27.0418    1.5948 H         1 UNK         0.3081 
     90 H90        27.1312   29.9520   -0.0137 H         1 UNK         0.0719 
     91 H91        29.5368   28.3833   -1.0804 H         1 UNK         0.0809 
     92 H92        28.4292   29.3662   -2.0362 H         1 UNK         0.0809 
     93 H93        29.4788   30.1288   -0.8580 H         1 UNK         0.0809 
     94 H94        27.2661   27.3575   -1.0743 H         1 UNK         0.2990 
     95 H95        24.9797   25.6103    0.8664 H         1 UNK         0.0690 
     96 H96        23.5593   25.4311   -1.1612 H         1 UNK         0.0788 
     97 H97        24.3166   26.8664   -1.8544 H         1 UNK         0.0788 
     98 H98        23.3295   26.9981   -0.4054 H         1 UNK         0.0788 
     99 H99        25.9896   25.0018   -1.6925 H         1 UNK         0.2993 
    100 H100       27.5983   23.3463   -1.8162 H         1 UNK         0.0949 
    101 H101       28.6189   25.4837   -2.6606 H         1 UNK         0.0767 
    102 H102       29.8312   25.4340   -1.3858 H         1 UNK         0.0767 
    103 H103       29.8265   24.2090   -2.6515 H         1 UNK         0.0767 
    104 H104       29.2160   23.4244    0.6023 H         1 UNK         0.3013 
    105 H105       26.3917   28.3052    3.2077 H         1 UNK         0.3121 
    106 H106       25.8105   29.2205    5.8905 H         1 UNK         0.0774 
    107 H107       23.5719   29.6902    4.9444 H         1 UNK         0.0815 
    108 H108       24.1699   29.4481    3.3105 H         1 UNK         0.0815 
    109 H109       24.1082   28.0953    4.4407 H         1 UNK         0.0815 
    110 H110       27.0656   30.7916    3.0181 H         1 UNK         0.2987 
    111 H111       26.3416   33.5115    3.9332 H         1 UNK         0.0949 
    112 H112       27.9620   32.6061    1.4918 H         1 UNK         0.0806 
    113 H113       26.2481   33.0156    1.4897 H         1 UNK         0.0806 
    114 H114       27.4484   34.2434    1.8579 H         1 UNK         0.0806 
    115 H115       29.2740   31.4617    3.3597 H         1 UNK         0.3010 
    116 H116       30.5626   32.4550    5.7313 H         1 UNK         0.0829 
    117 H117       31.1787   34.3584    4.2141 H         1 UNK         0.0813 
    118 H118       32.5944   33.3759    4.5379 H         1 UNK         0.0813 
    119 H119       31.7589   33.2251    2.9964 H         1 UNK         0.0813 
    120 H120       32.0874   30.9498    6.3964 H         1 UNK         0.3038 
    121 H121       31.9795   28.3542    5.3439 H         1 UNK         0.0769 
    122 H122       34.0062   29.5818    7.2876 H         1 UNK         0.0811 
    123 H123       32.4576   28.8536    7.7204 H         1 UNK         0.0811 
    124 H124       33.7385   27.8608    7.0499 H         1 UNK         0.0811 
    125 H125       34.0022   30.9182    4.2759 H         1 UNK         0.3204 
    126 H126       36.0274   29.2394    2.9817 H         1 UNK         0.0748 
    127 H127       36.8130   31.4256    2.0765 H         1 UNK         0.0771 
    128 H128       35.4036   32.2356    2.7457 H         1 UNK         0.0771 
    129 H129       36.6055   31.5140    3.8162 H         1 UNK         0.0771 
    130 H130       32.7534   30.0261    2.2578 H         1 UNK         0.2980 
    131 H131       31.4500   29.9207    0.5407 H         1 UNK         0.0545 
    132 H132       33.2774   32.9586   -0.9374 H         1 UNK         0.3459 
    133 H133       33.4991   32.2385    0.6376 H         1 UNK         0.3459 
    134 H134       33.5974   28.2155   -0.8261 H         1 UNK         0.0616 
    135 H135       32.0147   28.4800   -1.4927 H         1 UNK         0.0616 
    136 H136       33.9609   25.9628    0.2476 H         1 UNK         0.0634 
    137 H137       33.9096   27.0048    1.6534 H         1 UNK         0.0634 
@<TRIPOS>BOND
     1    1    2 1    
     2    1   72 1    
     3    1   73 1    
     4    1   74 1    
     5    2    3 2    
     6    2    4 am   BACKBONE|DICT|INTERRES
     7    4    5 1    
     8    4   75 1    
     9    5    6 1    
    10    5   35 1    
    11    5   76 1    
    12    6    7 1    
    13    6   77 1    
    14    6   78 1    
    15    7    8 1    
    16    8    9 1    
    17    8   79 1    
    18    8   80 1    
    19    9   10 ar   
    20    9   14 ar   
    21   10   11 ar   
    22   10   81 1    
    23   11   12 ar   
    24   11   71 1    
    25   12   13 ar   
    26   12   82 1    
    27   13   14 ar   
    28   13   15 1    
    29   14   83 1    
    30   15   16 1    
    31   15   84 1    
    32   15   85 1    
    33   16   17 1    
    34   17   18 1    
    35   17   86 1    
    36   17   87 1    
    37   18   19 1    
    38   18   37 1    
    39   18   88 1    
    40   19   20 am   BACKBONE|DICT|INTERRES
    41   19   89 1    
    42   20   21 2    
    43   20   22 1    
    44   22   23 1    
    45   22   24 1    
    46   22   90 1    
    47   23   91 1    
    48   23   92 1    
    49   23   93 1    
    50   24   25 am   BACKBONE|DICT|INTERRES
    51   24   94 1    
    52   25   26 2    
    53   25   27 1    
    54   27   28 1    
    55   27   29 1    
    56   27   95 1    
    57   28   96 1    
    58   28   97 1    
    59   28   98 1    
    60   29   30 am   BACKBONE|DICT|INTERRES
    61   29   99 1    
    62   30   31 2    
    63   30   32 1    
    64   32   33 1    
    65   32   34 1    
    66   32  100 1    
    67   33  101 1    
    68   33  102 1    
    69   33  103 1    
    70   34   35 am   BACKBONE|DICT|INTERRES
    71   34  104 1    
    72   35   36 2    
    73   37   38 2    
    74   37   39 am   BACKBONE|DICT|INTERRES
    75   39   40 1    
    76   39  105 1    
    77   40   41 1    
    78   40   42 1    
    79   40  106 1    
    80   41  107 1    
    81   41  108 1    
    82   41  109 1    
    83   42   43 2    
    84   42   44 am   BACKBONE|DICT|INTERRES
    85   44   45 1    
    86   44  110 1    
    87   45   46 1    
    88   45   47 1    
    89   45  111 1    
    90   46  112 1    
    91   46  113 1    
    92   46  114 1    
    93   47   48 2    
    94   47   49 am   BACKBONE|DICT|INTERRES
    95   49   50 1    
    96   49  115 1    
    97   50   51 1    
    98   50   52 1    
    99   50  116 1    
   100   51  117 1    
   101   51  118 1    
   102   51  119 1    
   103   52   53 2    
   104   52   54 am   BACKBONE|DICT|INTERRES
   105   54   55 1    
   106   54  120 1    
   107   55   56 1    
   108   55   57 1    
   109   55  121 1    
   110   56  122 1    
   111   56  123 1    
   112   56  124 1    
   113   57   58 2    
   114   57   59 am   BACKBONE|DICT|INTERRES
   115   59   60 1    
   116   59  125 1    
   117   60   61 1    
   118   60   62 1    
   119   60  126 1    
   120   61  127 1    
   121   61  128 1    
   122   61  129 1    
   123   62   63 2    
   124   62   64 am   BACKBONE|DICT|INTERRES
   125   64   65 1    
   126   64  130 1    
   127   65   66 1    
   128   65   69 1    
   129   65  131 1    
   130   66   67 am   BACKBONE|DICT|INTERRES
   131   66   68 2    
   132   67  132 1    
   133   67  133 1    
   134   69   70 1    
   135   69  134 1    
   136   69  135 1    
   137   70   71 1    
   138   71  136 1    
   139   71  137 1    
@<TRIPOS>SUBSTRUCTURE
     1 UNK         1 GROUP             0       ****    0 ROOT    
