@<TRIPOS>MOLECULE
3R136
137   139    1
SMALL
USER_CHARGES


@<TRIPOS>ATOM
      1 CA         27.5293   19.9224    2.4826 C.3       0 UNK        -0.1979 
      2 C          27.9542   20.6045    1.1911 C.2       0 UNK         0.4864 
      3 O          27.3846   20.3309    0.1327 O.2       0 UNK        -0.5359 
      4 N          28.9427   21.5039    1.2678 N.am      1 UNK        -0.4318 
      5 CA         29.4843   22.2904    0.1522 C.3       1 UNK         0.0824 
      6 C6         30.9600   22.7491    0.3890 C.3       12 UNK        -0.0944 
      7 S7         31.9925   21.5547    1.3196 S.3       12 UNK        -0.2672 
      8 C8         32.9560   22.6143    2.4668 C.3       12 UNK         0.0333 
      9 C9         32.1548   23.6861    3.2103 C.ar      12 UNK        -0.0807 
     10 C10        32.7107   24.9583    3.3827 C.ar      12 UNK        -0.0894 
     11 C11        31.9909   25.9696    4.0250 C.ar      12 UNK        -0.0804 
     12 C12        30.6936   25.7158    4.4740 C.ar      12 UNK        -0.0824 
     13 C13        30.1207   24.4547    4.3034 C.ar      12 UNK        -0.0762 
     14 C14        30.8698   23.4342    3.7070 C.ar      12 UNK        -0.0782 
     15 C15        28.6837   24.1997    4.7306 C.3       12 UNK         0.0230 
     16 S16        27.5926   24.1577    3.2750 S.3       12 UNK        -0.2608 
     17 C17        26.6610   25.7238    3.3668 C.3       12 UNK        -0.0989 
     18 CA         27.4655   27.0350    3.1437 C.3       5 UNK         0.0716 
     19 N          28.3696   27.0084    1.9892 N.am      5 UNK        -0.4135 
     20 C          29.2602   27.9728    1.6998 C.2       4 UNK         0.5031 
     21 O          29.4932   28.9451    2.4227 O.2       4 UNK        -0.5229 
     22 CA         29.9909   27.8626    0.3539 C.3       4 UNK         0.0329 
     23 CB         31.2607   27.0085    0.4926 C.3       4 UNK        -0.2001 
     24 N          29.1312   27.3080   -0.6935 N.am      4 UNK        -0.4303 
     25 C          28.1223   27.9675   -1.2788 C.2       3 UNK         0.5044 
     26 O          27.8209   29.1297   -1.0127 O.2       3 UNK        -0.5152 
     27 CA         27.2826   27.1919   -2.3100 C.3       3 UNK         0.0319 
     28 CB         27.9795   27.1834   -3.6795 C.3       3 UNK        -0.2001 
     29 N          26.9820   25.8167   -1.9028 N.am      3 UNK        -0.4354 
     30 C          26.2529   25.4918   -0.8265 C.2       2 UNK         0.4964 
     31 O          25.7457   26.3178   -0.0679 O.2       2 UNK        -0.5047 
     32 CA         26.0883   23.9953   -0.5140 C.3       2 UNK         0.0288 
     33 CB         25.0109   23.3723   -1.4161 C.3       2 UNK        -0.2113 
     34 N          27.2999   23.1625   -0.5570 N.am      2 UNK        -0.4145 
     35 C          28.5305   23.4765   -0.1218 C.2       1 UNK         0.5006 
     36 O          28.8900   24.6232    0.1438 O.2       1 UNK        -0.5103 
     37 C          26.4956   28.2320    3.0529 C.2       5 UNK         0.5055 
     38 O          26.3810   28.9943    4.0130 O.2       5 UNK        -0.5220 
     39 N          25.8304   28.3782    1.8957 N.am      6 UNK        -0.4450 
     40 CA         24.8571   29.4349    1.6082 C.3       6 UNK         0.0367 
     41 CB         24.1434   29.1319    0.2810 C.3       6 UNK        -0.1929 
     42 C          25.4737   30.8415    1.5764 C.2       6 UNK         0.5070 
     43 O          24.8678   31.7760    2.1013 O.2       6 UNK        -0.5237 
     44 N          26.6665   30.9707    0.9784 N.am      7 UNK        -0.4739 
     45 CA         27.4259   32.2237    0.9239 C.3       7 UNK         0.0276 
     46 CB         28.5324   32.1009   -0.1366 C.3       7 UNK        -0.1927 
     47 C          28.0398   32.6324    2.2742 C.2       7 UNK         0.5013 
     48 O          28.3846   33.8041    2.4333 O.2       7 UNK        -0.5193 
     49 N          28.1877   31.6663    3.1954 N.am      8 UNK        -0.4253 
     50 CA         28.8929   31.7578    4.4786 C.3       8 UNK         0.0242 
     51 CB         28.1595   32.7038    5.4533 C.3       8 UNK        -0.2000 
     52 C          30.3739   32.1210    4.2648 C.2       8 UNK         0.4948 
     53 O          30.8600   33.1168    4.8068 O.2       8 UNK        -0.5275 
     54 N          31.0403   31.3213    3.4212 N.am      9 UNK        -0.4246 
     55 CA         32.4368   31.4935    3.0150 C.3       9 UNK         0.0261 
     56 CB         32.7009   30.5767    1.8074 C.3       9 UNK        -0.1959 
     57 C          33.4390   31.2210    4.1551 C.2       9 UNK         0.5033 
     58 O          33.0578   30.7355    5.2216 O.2       9 UNK        -0.5390 
     59 N          34.7202   31.5189    3.8938 N.am      10 UNK        -0.4215 
     60 CA         35.8413   31.2860    4.8151 C.3       10 UNK         0.0240 
     61 CB         37.0762   32.0496    4.3074 C.3       10 UNK        -0.1982 
     62 C          36.1826   29.7975    5.0336 C.2       10 UNK         0.4970 
     63 O          36.8134   29.4724    6.0401 O.2       10 UNK        -0.4916 
     64 N          35.7685   28.9353    4.0943 N.am      11 UNK        -0.4279 
     65 CA         35.9085   27.4668    4.1192 C.3       11 UNK         0.1003 
     66 C          37.3628   26.9413    3.9204 C.2       11 UNK         0.5709 
     67 N          38.3142   27.7664    3.4994 N.am      11 UNK        -0.7358 
     68 O          37.6294   25.7577    4.1155 O.2       11 UNK        -0.4999 
     69 C69        35.1912   26.7801    5.3257 C.3       12 UNK        -0.0954 
     70 S70        33.5434   27.4373    5.7742 S.3       12 UNK        -0.2268 
     71 C71        32.5987   27.3461    4.2223 C.3       12 UNK         0.0203 
     72 H72        28.1031   20.2777    3.3385 H         1 UNK         0.0888 
     73 H73        26.4751   20.1163    2.6786 H         1 UNK         0.0888 
     74 H74        27.6701   18.8450    2.4020 H         1 UNK         0.0888 
     75 H75        29.3569   21.7044    2.1641 H         1 UNK         0.3017 
     76 H76        29.4840   21.6585   -0.7386 H         1 UNK         0.0873 
     77 H77        31.4413   22.9410   -0.5711 H         1 UNK         0.0745 
     78 H78        30.9988   23.6993    0.9160 H         1 UNK         0.0745 
     79 H79        33.4467   21.9749    3.2015 H         1 UNK         0.0705 
     80 H80        33.7541   23.0817    1.8878 H         1 UNK         0.0705 
     81 H81        33.7064   25.1647    3.0155 H         1 UNK         0.1334 
     82 H82        30.1300   26.5056    4.9503 H         1 UNK         0.1417 
     83 H83        30.4344   22.4531    3.5930 H         1 UNK         0.1562 
     84 H84        28.3418   24.9539    5.4410 H         1 UNK         0.0748 
     85 H85        28.6228   23.2410    5.2475 H         1 UNK         0.0748 
     86 H86        26.1560   25.7585    4.3342 H         1 UNK         0.0940 
     87 H87        25.8634   25.6391    2.6262 H         1 UNK         0.0940 
     88 H88        28.0870   27.1941    4.0260 H         1 UNK         0.0703 
     89 H89        28.2987   26.2101    1.3670 H         1 UNK         0.3081 
     90 H90        30.2892   28.8686    0.0514 H         1 UNK         0.0719 
     91 H91        31.0364   26.0088    0.8623 H         1 UNK         0.0809 
     92 H92        31.7814   26.9081   -0.4595 H         1 UNK         0.0809 
     93 H93        31.9584   27.4574    1.1978 H         1 UNK         0.0809 
     94 H94        29.2217   26.3122   -0.8646 H         1 UNK         0.2990 
     95 H95        26.3317   27.7183   -2.4178 H         1 UNK         0.0690 
     96 H96        27.3507   26.7230   -4.4419 H         1 UNK         0.0788 
     97 H97        28.9250   26.6403   -3.6499 H         1 UNK         0.0788 
     98 H98        28.1972   28.1995   -4.0119 H         1 UNK         0.0788 
     99 H99        27.3796   25.0722   -2.4568 H         1 UNK         0.2993 
    100 H100       25.7293   23.9384    0.5156 H         1 UNK         0.0949 
    101 H101       24.0896   23.9564   -1.3892 H         1 UNK         0.0767 
    102 H102       25.3362   23.3210   -2.4558 H         1 UNK         0.0767 
    103 H103       24.7601   22.3614   -1.0935 H         1 UNK         0.0767 
    104 H104       27.1314   22.1689   -0.6810 H         1 UNK         0.3013 
    105 H105       25.9571   27.6779    1.1664 H         1 UNK         0.3121 
    106 H106       24.1111   29.4210    2.4056 H         1 UNK         0.0774 
    107 H107       23.4047   29.9002    0.0487 H         1 UNK         0.0815 
    108 H108       24.8453   29.0887   -0.5529 H         1 UNK         0.0815 
    109 H109       23.6167   28.1783    0.3231 H         1 UNK         0.0815 
    110 H110       27.0721   30.1711    0.4991 H         1 UNK         0.2987 
    111 H111       26.7468   33.0232    0.6194 H         1 UNK         0.0949 
    112 H112       29.2374   31.3056    0.1092 H         1 UNK         0.0806 
    113 H113       28.1164   31.8884   -1.1215 H         1 UNK         0.0806 
    114 H114       29.1017   33.0277   -0.2198 H         1 UNK         0.0806 
    115 H115       27.8818   30.7360    2.9398 H         1 UNK         0.3010 
    116 H116       28.8758   30.7563    4.9121 H         1 UNK         0.0829 
    117 H117       27.1216   32.4007    5.5911 H         1 UNK         0.0813 
    118 H118       28.6349   32.6930    6.4347 H         1 UNK         0.0813 
    119 H119       28.1640   33.7362    5.1028 H         1 UNK         0.0813 
    120 H120       30.5515   30.5125    3.0469 H         1 UNK         0.3038 
    121 H121       32.5659   32.5312    2.7003 H         1 UNK         0.0769 
    122 H122       32.5933   29.5270    2.0750 H         1 UNK         0.0811 
    123 H123       33.7059   30.7133    1.4071 H         1 UNK         0.0811 
    124 H124       32.0045   30.7841    0.9944 H         1 UNK         0.0811 
    125 H125       34.9499   31.9321    3.0008 H         1 UNK         0.3204 
    126 H126       35.5641   31.6964    5.7885 H         1 UNK         0.0748 
    127 H127       37.9213   31.9214    4.9856 H         1 UNK         0.0771 
    128 H128       37.3925   31.7011    3.3235 H         1 UNK         0.0771 
    129 H129       36.8805   33.1199    4.2387 H         1 UNK         0.0771 
    130 H130       35.2901   29.3118    3.2911 H         1 UNK         0.2980 
    131 H131       35.4016   27.1285    3.2163 H         1 UNK         0.0545 
    132 H132       39.2481   27.4130    3.3629 H         1 UNK         0.3459 
    133 H133       38.1108   28.7374    3.3280 H         1 UNK         0.3459 
    134 H134       35.8129   26.8623    6.2187 H         1 UNK         0.0616 
    135 H135       35.0829   25.7106    5.1385 H         1 UNK         0.0616 
    136 H136       31.8077   28.0973    4.2592 H         1 UNK         0.0634 
    137 H137       33.2191   27.6162    3.3704 H         1 UNK         0.0634 
@<TRIPOS>BOND
     1    1    2 1    
     2    1   72 1    
     3    1   73 1    
     4    1   74 1    
     5    2    3 2    
     6    2    4 am   BACKBONE|DICT|INTERRES
     7    4    5 1    
     8    4   75 1    
     9    5    6 1    
    10    5   35 1    
    11    5   76 1    
    12    6    7 1    
    13    6   77 1    
    14    6   78 1    
    15    7    8 1    
    16    8    9 1    
    17    8   79 1    
    18    8   80 1    
    19    9   10 ar   
    20    9   14 ar   
    21   10   11 ar   
    22   10   81 1    
    23   11   12 ar   
    24   11   71 1    
    25   12   13 ar   
    26   12   82 1    
    27   13   14 ar   
    28   13   15 1    
    29   14   83 1    
    30   15   16 1    
    31   15   84 1    
    32   15   85 1    
    33   16   17 1    
    34   17   18 1    
    35   17   86 1    
    36   17   87 1    
    37   18   19 1    
    38   18   37 1    
    39   18   88 1    
    40   19   20 am   BACKBONE|DICT|INTERRES
    41   19   89 1    
    42   20   21 2    
    43   20   22 1    
    44   22   23 1    
    45   22   24 1    
    46   22   90 1    
    47   23   91 1    
    48   23   92 1    
    49   23   93 1    
    50   24   25 am   BACKBONE|DICT|INTERRES
    51   24   94 1    
    52   25   26 2    
    53   25   27 1    
    54   27   28 1    
    55   27   29 1    
    56   27   95 1    
    57   28   96 1    
    58   28   97 1    
    59   28   98 1    
    60   29   30 am   BACKBONE|DICT|INTERRES
    61   29   99 1    
    62   30   31 2    
    63   30   32 1    
    64   32   33 1    
    65   32   34 1    
    66   32  100 1    
    67   33  101 1    
    68   33  102 1    
    69   33  103 1    
    70   34   35 am   BACKBONE|DICT|INTERRES
    71   34  104 1    
    72   35   36 2    
    73   37   38 2    
    74   37   39 am   BACKBONE|DICT|INTERRES
    75   39   40 1    
    76   39  105 1    
    77   40   41 1    
    78   40   42 1    
    79   40  106 1    
    80   41  107 1    
    81   41  108 1    
    82   41  109 1    
    83   42   43 2    
    84   42   44 am   BACKBONE|DICT|INTERRES
    85   44   45 1    
    86   44  110 1    
    87   45   46 1    
    88   45   47 1    
    89   45  111 1    
    90   46  112 1    
    91   46  113 1    
    92   46  114 1    
    93   47   48 2    
    94   47   49 am   BACKBONE|DICT|INTERRES
    95   49   50 1    
    96   49  115 1    
    97   50   51 1    
    98   50   52 1    
    99   50  116 1    
   100   51  117 1    
   101   51  118 1    
   102   51  119 1    
   103   52   53 2    
   104   52   54 am   BACKBONE|DICT|INTERRES
   105   54   55 1    
   106   54  120 1    
   107   55   56 1    
   108   55   57 1    
   109   55  121 1    
   110   56  122 1    
   111   56  123 1    
   112   56  124 1    
   113   57   58 2    
   114   57   59 am   BACKBONE|DICT|INTERRES
   115   59   60 1    
   116   59  125 1    
   117   60   61 1    
   118   60   62 1    
   119   60  126 1    
   120   61  127 1    
   121   61  128 1    
   122   61  129 1    
   123   62   63 2    
   124   62   64 am   BACKBONE|DICT|INTERRES
   125   64   65 1    
   126   64  130 1    
   127   65   66 1    
   128   65   69 1    
   129   65  131 1    
   130   66   67 am   BACKBONE|DICT|INTERRES
   131   66   68 2    
   132   67  132 1    
   133   67  133 1    
   134   69   70 1    
   135   69  134 1    
   136   69  135 1    
   137   70   71 1    
   138   71  136 1    
   139   71  137 1    
@<TRIPOS>SUBSTRUCTURE
     1 UNK         1 GROUP             0       ****    0 ROOT    
