@<TRIPOS>MOLECULE
3R136
137   139    1
SMALL
USER_CHARGES


@<TRIPOS>ATOM
      1 CA         28.8154   27.0523   -4.4492 C.3       0 UNK        -0.1979 
      2 C          28.3532   26.6553   -3.0563 C.2       0 UNK         0.4864 
      3 O          27.1501   26.6213   -2.7948 O.2       0 UNK        -0.5359 
      4 N          29.2942   26.3290   -2.1587 N.am      1 UNK        -0.4318 
      5 CA         29.0327   25.9921   -0.7521 C.3       1 UNK         0.0824 
      6 C6         30.3100   26.0491    0.1113 C.3       12 UNK        -0.0944 
      7 S7         31.6183   24.8695   -0.3723 S.3       12 UNK        -0.2672 
      8 C8         31.4724   23.5784    0.9125 C.3       12 UNK         0.0333 
      9 C9         31.6152   24.1228    2.3304 C.ar      12 UNK        -0.0807 
     10 C10        32.7513   24.8482    2.7024 C.ar      12 UNK        -0.0894 
     11 C11        32.8652   25.3841    3.9889 C.ar      12 UNK        -0.0804 
     12 C12        31.8378   25.1712    4.9144 C.ar      12 UNK        -0.0824 
     13 C13        30.7116   24.4170    4.5679 C.ar      12 UNK        -0.0762 
     14 C14        30.6043   23.9018    3.2717 C.ar      12 UNK        -0.0782 
     15 C15        29.6406   24.1152    5.6108 C.3       12 UNK         0.0230 
     16 S16        27.9678   24.6361    5.1072 S.3       12 UNK        -0.2608 
     17 C17        28.0934   26.4553    5.1701 C.3       12 UNK        -0.0989 
     18 CA         27.8182   27.1068    3.7935 C.3       5 UNK         0.0716 
     19 N          26.4958   26.7414    3.2601 N.am      5 UNK        -0.4135 
     20 C          26.0534   27.0213    2.0275 C.2       4 UNK         0.5031 
     21 O          26.6834   27.6916    1.2064 O.2       4 UNK        -0.5229 
     22 CA         24.6451   26.5396    1.6741 C.3       4 UNK         0.0329 
     23 CB         23.6234   27.6703    1.9065 C.3       4 UNK        -0.2001 
     24 N          24.6461   26.1187    0.2766 N.am      4 UNK        -0.4303 
     25 C          23.6926   25.4001   -0.3282 C.2       3 UNK         0.5044 
     26 O          22.6484   25.0399    0.2168 O.2       3 UNK        -0.5152 
     27 CA         23.9657   24.9886   -1.7840 C.3       3 UNK         0.0319 
     28 CB         23.7974   26.1842   -2.7361 C.3       3 UNK        -0.2001 
     29 N          25.3031   24.4104   -1.9357 N.am      3 UNK        -0.4354 
     30 C          25.6380   23.1782   -1.5149 C.2       2 UNK         0.4964 
     31 O          24.8293   22.3751   -1.0482 O.2       2 UNK        -0.5047 
     32 CA         27.1177   22.7577   -1.6202 C.3       2 UNK         0.0288 
     33 CB         27.3605   21.9507   -2.9059 C.3       2 UNK        -0.2113 
     34 N          28.0412   23.8912   -1.5841 N.am      2 UNK        -0.4145 
     35 C          28.2249   24.6944   -0.5265 C.2       1 UNK         0.5006 
     36 O          27.7535   24.4629    0.5874 O.2       1 UNK        -0.5103 
     37 C          28.0569   28.6316    3.8631 C.2       5 UNK         0.5055 
     38 O          29.2098   29.0557    3.9151 O.2       5 UNK        -0.5220 
     39 N          26.9846   29.4363    3.8154 N.am      6 UNK        -0.4450 
     40 CA         27.0275   30.8967    3.6950 C.3       6 UNK         0.0367 
     41 CB         25.5963   31.4491    3.7949 C.3       6 UNK        -0.1929 
     42 C          27.7082   31.3997    2.4049 C.2       6 UNK         0.5070 
     43 O          28.1854   32.5341    2.3873 O.2       6 UNK        -0.5237 
     44 N          27.7560   30.5600    1.3593 N.am      7 UNK        -0.4739 
     45 CA         28.4651   30.8362    0.1075 C.3       7 UNK         0.0276 
     46 CB         27.7803   30.0624   -1.0325 C.3       7 UNK        -0.1927 
     47 C          29.9702   30.5029    0.1701 C.2       7 UNK         0.5013 
     48 O          30.6800   30.8055   -0.7907 O.2       7 UNK        -0.5193 
     49 N          30.4387   29.8768    1.2605 N.am      8 UNK        -0.4253 
     50 CA         31.8437   29.5191    1.4670 C.3       8 UNK         0.0242 
     51 CB         31.9287   28.3651    2.4795 C.3       8 UNK        -0.2000 
     52 C          32.6770   30.7101    1.9682 C.2       8 UNK         0.4948 
     53 O          32.1308   31.7376    2.3743 O.2       8 UNK        -0.5275 
     54 N          34.0007   30.5119    2.0034 N.am      9 UNK        -0.4246 
     55 CA         34.9984   31.4671    2.4998 C.3       9 UNK         0.0261 
     56 CB         36.3376   31.1838    1.7929 C.3       9 UNK        -0.1959 
     57 C          35.1579   31.4753    4.0385 C.2       9 UNK         0.5033 
     58 O          36.1898   31.9412    4.5244 O.2       9 UNK        -0.5390 
     59 N          34.1557   30.9665    4.7742 N.am      10 UNK        -0.4215 
     60 CA         34.0743   30.8666    6.2391 C.3       10 UNK         0.0240 
     61 CB         33.9504   32.2685    6.8746 C.3       10 UNK        -0.1982 
     62 C          35.2211   30.0309    6.8425 C.2       10 UNK         0.4970 
     63 O          35.9857   30.5271    7.6722 O.2       10 UNK        -0.4916 
     64 N          35.3207   28.7730    6.3939 N.am      11 UNK        -0.4279 
     65 CA         36.3474   27.8029    6.8102 C.3       11 UNK         0.1003 
     66 C          36.2555   27.3021    8.2838 C.2       11 UNK         0.5709 
     67 N          35.1685   27.5480    9.0060 N.am      11 UNK        -0.7358 
     68 O          37.1968   26.6895    8.7826 O.2       11 UNK        -0.4999 
     69 C69        36.4728   26.6370    5.7908 C.3       12 UNK        -0.0954 
     70 S70        35.0340   25.5093    5.7279 S.3       12 UNK        -0.2268 
     71 C71        34.0782   26.2277    4.3587 C.3       12 UNK         0.0203 
     72 H72        28.3858   26.3814   -5.1926 H         1 UNK         0.0888 
     73 H73        28.4876   28.0666   -4.6752 H         1 UNK         0.0888 
     74 H74        29.9004   27.0167   -4.5445 H         1 UNK         0.0888 
     75 H75        30.2688   26.3399   -2.4265 H         1 UNK         0.3017 
     76 H76        28.3858   26.7848   -0.3803 H         1 UNK         0.0873 
     77 H77        30.7374   27.0497    0.0390 H         1 UNK         0.0745 
     78 H78        30.0505   25.9213    1.1624 H         1 UNK         0.0745 
     79 H79        32.2446   22.8268    0.7442 H         1 UNK         0.0705 
     80 H80        30.5159   23.0685    0.7873 H         1 UNK         0.0705 
     81 H81        33.5343   25.0171    1.9757 H         1 UNK         0.1334 
     82 H82        31.9286   25.5795    5.9118 H         1 UNK         0.1417 
     83 H83        29.7280   23.3291    2.9982 H         1 UNK         0.1562 
     84 H84        29.8829   24.5779    6.5689 H         1 UNK         0.0748 
     85 H85        29.6278   23.0392    5.7896 H         1 UNK         0.0748 
     86 H86        29.0867   26.7323    5.5298 H         1 UNK         0.0940 
     87 H87        27.3885   26.8220    5.9188 H         1 UNK         0.0940 
     88 H88        28.5573   26.7171    3.0895 H         1 UNK         0.0703 
     89 H89        25.9182   26.1827    3.8719 H         1 UNK         0.3081 
     90 H90        24.3934   25.6793    2.2979 H         1 UNK         0.0719 
     91 H91        23.6403   28.0086    2.9432 H         1 UNK         0.0809 
     92 H92        22.6055   27.3431    1.6952 H         1 UNK         0.0809 
     93 H93        23.8330   28.5356    1.2760 H         1 UNK         0.0809 
     94 H94        25.4809   26.3744   -0.2361 H         1 UNK         0.2990 
     95 H95        23.2288   24.2328   -2.0648 H         1 UNK         0.0690 
     96 H96        23.9592   25.8904   -3.7733 H         1 UNK         0.0788 
     97 H97        24.4935   26.9916   -2.5057 H         1 UNK         0.0788 
     98 H98        22.7893   26.5954   -2.6685 H         1 UNK         0.0788 
     99 H99        26.0230   25.0272   -2.3012 H         1 UNK         0.2993 
    100 H100       27.3373   22.1174   -0.7629 H         1 UNK         0.0949 
    101 H101       26.7047   21.0798   -2.9489 H         1 UNK         0.0767 
    102 H102       27.1701   22.5468   -3.7994 H         1 UNK         0.0767 
    103 H103       28.3862   21.5845   -2.9571 H         1 UNK         0.0767 
    104 H104       28.4770   24.1535   -2.4560 H         1 UNK         0.3013 
    105 H105       26.0725   29.0069    3.7790 H         1 UNK         0.3121 
    106 H106       27.6061   31.2813    4.5376 H         1 UNK         0.0774 
    107 H107       25.5941   32.5386    3.7372 H         1 UNK         0.0815 
    108 H108       24.9636   31.0795    2.9867 H         1 UNK         0.0815 
    109 H109       25.1290   31.1767    4.7414 H         1 UNK         0.0815 
    110 H110       27.3358   29.6390    1.4426 H         1 UNK         0.2987 
    111 H111       28.3857   31.9020   -0.1178 H         1 UNK         0.0949 
    112 H112       26.7278   30.3324   -1.1198 H         1 UNK         0.0806 
    113 H113       28.2498   30.2784   -1.9931 H         1 UNK         0.0806 
    114 H114       27.8352   28.9855   -0.8802 H         1 UNK         0.0806 
    115 H115       29.8173   29.7208    2.0464 H         1 UNK         0.3010 
    116 H116       32.2577   29.1786    0.5151 H         1 UNK         0.0829 
    117 H117       31.1721   27.6031    2.3053 H         1 UNK         0.0813 
    118 H118       32.8980   27.8742    2.4108 H         1 UNK         0.0813 
    119 H119       31.8038   28.7092    3.5070 H         1 UNK         0.0813 
    120 H120       34.3633   29.6279    1.6751 H         1 UNK         0.3038 
    121 H121       34.6812   32.4731    2.2167 H         1 UNK         0.0769 
    122 H122       36.7407   30.2087    2.0691 H         1 UNK         0.0811 
    123 H123       37.0879   31.9319    2.0525 H         1 UNK         0.0811 
    124 H124       36.2281   31.2083    0.7084 H         1 UNK         0.0811 
    125 H125       33.3408   30.6499    4.2682 H         1 UNK         0.3204 
    126 H126       33.1516   30.3283    6.4619 H         1 UNK         0.0748 
    127 H127       33.8005   32.1965    7.9527 H         1 UNK         0.0771 
    128 H128       34.8447   32.8709    6.7112 H         1 UNK         0.0771 
    129 H129       33.1004   32.8147    6.4657 H         1 UNK         0.0771 
    130 H130       34.6461   28.4397    5.7247 H         1 UNK         0.2980 
    131 H131       37.2954   28.3426    6.7652 H         1 UNK         0.0545 
    132 H132       34.3913   28.0482    8.6078 H         1 UNK         0.3459 
    133 H133       35.1262   27.2229    9.9589 H         1 UNK         0.3459 
    134 H134       37.3510   26.0339    6.0278 H         1 UNK         0.0616 
    135 H135       36.6628   27.0356    4.7931 H         1 UNK         0.0616 
    136 H136       34.7344   26.3533    3.4960 H         1 UNK         0.0634 
    137 H137       33.7383   27.2232    4.6423 H         1 UNK         0.0634 
@<TRIPOS>BOND
     1    1    2 1    
     2    1   72 1    
     3    1   73 1    
     4    1   74 1    
     5    2    3 2    
     6    2    4 am   BACKBONE|DICT|INTERRES
     7    4    5 1    
     8    4   75 1    
     9    5    6 1    
    10    5   35 1    
    11    5   76 1    
    12    6    7 1    
    13    6   77 1    
    14    6   78 1    
    15    7    8 1    
    16    8    9 1    
    17    8   79 1    
    18    8   80 1    
    19    9   10 ar   
    20    9   14 ar   
    21   10   11 ar   
    22   10   81 1    
    23   11   12 ar   
    24   11   71 1    
    25   12   13 ar   
    26   12   82 1    
    27   13   14 ar   
    28   13   15 1    
    29   14   83 1    
    30   15   16 1    
    31   15   84 1    
    32   15   85 1    
    33   16   17 1    
    34   17   18 1    
    35   17   86 1    
    36   17   87 1    
    37   18   19 1    
    38   18   37 1    
    39   18   88 1    
    40   19   20 am   BACKBONE|DICT|INTERRES
    41   19   89 1    
    42   20   21 2    
    43   20   22 1    
    44   22   23 1    
    45   22   24 1    
    46   22   90 1    
    47   23   91 1    
    48   23   92 1    
    49   23   93 1    
    50   24   25 am   BACKBONE|DICT|INTERRES
    51   24   94 1    
    52   25   26 2    
    53   25   27 1    
    54   27   28 1    
    55   27   29 1    
    56   27   95 1    
    57   28   96 1    
    58   28   97 1    
    59   28   98 1    
    60   29   30 am   BACKBONE|DICT|INTERRES
    61   29   99 1    
    62   30   31 2    
    63   30   32 1    
    64   32   33 1    
    65   32   34 1    
    66   32  100 1    
    67   33  101 1    
    68   33  102 1    
    69   33  103 1    
    70   34   35 am   BACKBONE|DICT|INTERRES
    71   34  104 1    
    72   35   36 2    
    73   37   38 2    
    74   37   39 am   BACKBONE|DICT|INTERRES
    75   39   40 1    
    76   39  105 1    
    77   40   41 1    
    78   40   42 1    
    79   40  106 1    
    80   41  107 1    
    81   41  108 1    
    82   41  109 1    
    83   42   43 2    
    84   42   44 am   BACKBONE|DICT|INTERRES
    85   44   45 1    
    86   44  110 1    
    87   45   46 1    
    88   45   47 1    
    89   45  111 1    
    90   46  112 1    
    91   46  113 1    
    92   46  114 1    
    93   47   48 2    
    94   47   49 am   BACKBONE|DICT|INTERRES
    95   49   50 1    
    96   49  115 1    
    97   50   51 1    
    98   50   52 1    
    99   50  116 1    
   100   51  117 1    
   101   51  118 1    
   102   51  119 1    
   103   52   53 2    
   104   52   54 am   BACKBONE|DICT|INTERRES
   105   54   55 1    
   106   54  120 1    
   107   55   56 1    
   108   55   57 1    
   109   55  121 1    
   110   56  122 1    
   111   56  123 1    
   112   56  124 1    
   113   57   58 2    
   114   57   59 am   BACKBONE|DICT|INTERRES
   115   59   60 1    
   116   59  125 1    
   117   60   61 1    
   118   60   62 1    
   119   60  126 1    
   120   61  127 1    
   121   61  128 1    
   122   61  129 1    
   123   62   63 2    
   124   62   64 am   BACKBONE|DICT|INTERRES
   125   64   65 1    
   126   64  130 1    
   127   65   66 1    
   128   65   69 1    
   129   65  131 1    
   130   66   67 am   BACKBONE|DICT|INTERRES
   131   66   68 2    
   132   67  132 1    
   133   67  133 1    
   134   69   70 1    
   135   69  134 1    
   136   69  135 1    
   137   70   71 1    
   138   71  136 1    
   139   71  137 1    
@<TRIPOS>SUBSTRUCTURE
     1 UNK         1 GROUP             0       ****    0 ROOT    
