@<TRIPOS>MOLECULE
3R136
137   139    1
SMALL
USER_CHARGES


@<TRIPOS>ATOM
      1 CA         28.0293   17.9038   -2.7644 C.3       0 UNK        -0.1979 
      2 C          28.5894   19.2375   -2.2915 C.2       0 UNK         0.4864 
      3 O          29.6663   19.6390   -2.7350 O.2       0 UNK        -0.5359 
      4 N          27.8676   19.9235   -1.3986 N.am      1 UNK        -0.4318 
      5 CA         28.2289   21.2317   -0.8563 C.3       1 UNK         0.0824 
      6 C6         29.3006   21.1402    0.2632 C.3       12 UNK        -0.0944 
      7 S7         29.8665   22.7691    0.8603 S.3       12 UNK        -0.2672 
      8 C8         29.5153   22.6217    2.6389 C.3       12 UNK         0.0333 
      9 C9         29.9393   23.8699    3.3972 C.ar      12 UNK        -0.0807 
     10 C10        31.2950   24.1252    3.6313 C.ar      12 UNK        -0.0894 
     11 C11        31.6863   25.2687    4.3335 C.ar      12 UNK        -0.0804 
     12 C12        30.7159   26.1479    4.8145 C.ar      12 UNK        -0.0824 
     13 C13        29.3612   25.9121    4.5776 C.ar      12 UNK        -0.0762 
     14 C14        28.9778   24.7678    3.8723 C.ar      12 UNK        -0.0782 
     15 C15        28.3165   26.9009    5.0709 C.3       12 UNK         0.0230 
     16 S16        27.5407   27.8084    3.6979 S.3       12 UNK        -0.2608 
     17 C17        28.9333   28.7589    2.9856 C.3       12 UNK        -0.0989 
     18 CA         29.6388   28.0469    1.7981 C.3       5 UNK         0.0716 
     19 N          28.6806   27.5124    0.8281 N.am      5 UNK        -0.4135 
     20 C          28.9577   26.6731   -0.1758 C.2       4 UNK         0.5031 
     21 O          30.0799   26.2062   -0.3790 O.2       4 UNK        -0.5229 
     22 CA         27.7882   26.3095   -1.1176 C.3       4 UNK         0.0329 
     23 CB         28.2154   25.3318   -2.2283 C.3       4 UNK        -0.2001 
     24 N          26.6161   25.7636   -0.4184 N.am      4 UNK        -0.4303 
     25 C          25.7406   26.4855    0.2991 C.2       3 UNK         0.5044 
     26 O          25.8601   27.7000    0.4699 O.2       3 UNK        -0.5152 
     27 CA         24.5180   25.7769    0.9149 C.3       3 UNK         0.0319 
     28 CB         23.2167   26.3117    0.2925 C.3       3 UNK        -0.2001 
     29 N          24.5363   24.3206    0.7716 N.am      3 UNK        -0.4354 
     30 C          25.1700   23.4722    1.5907 C.2       2 UNK         0.4964 
     31 O          25.8194   23.8240    2.5741 O.2       2 UNK        -0.5047 
     32 CA         25.0749   21.9703    1.2565 C.3       2 UNK         0.0288 
     33 CB         23.8604   21.5988    0.3736 C.3       2 UNK        -0.2113 
     34 N          26.3184   21.4639    0.6634 N.am      2 UNK        -0.4145 
     35 C          26.9289   21.9330   -0.4368 C.2       1 UNK         0.5006 
     36 O          26.4872   22.8506   -1.1302 O.2       1 UNK        -0.5103 
     37 C          30.6148   28.9900    1.0641 C.2       5 UNK         0.5055 
     38 O          30.1768   30.0266    0.5592 O.2       5 UNK        -0.5220 
     39 N          31.8920   28.5950    0.9598 N.am      6 UNK        -0.4450 
     40 CA         32.8771   29.1726    0.0346 C.3       6 UNK         0.0367 
     41 CB         34.1801   28.3597    0.0924 C.3       6 UNK        -0.1929 
     42 C          33.1814   30.6689    0.2215 C.2       6 UNK         0.5070 
     43 O          33.5304   31.3292   -0.7577 O.2       6 UNK        -0.5237 
     44 N          33.0475   31.1781    1.4509 N.am      7 UNK        -0.4739 
     45 CA         33.2408   32.5893    1.7928 C.3       7 UNK         0.0276 
     46 CB         34.2522   32.6802    2.9502 C.3       7 UNK        -0.1927 
     47 C          31.9141   33.2720    2.1671 C.2       7 UNK         0.5013 
     48 O          31.9491   34.3899    2.6851 O.2       7 UNK        -0.5193 
     49 N          30.7756   32.5908    1.9513 N.am      8 UNK        -0.4253 
     50 CA         29.4153   32.9086    2.4112 C.3       8 UNK         0.0242 
     51 CB         28.9054   34.2551    1.8595 C.3       8 UNK        -0.2000 
     52 C          29.2886   32.8218    3.9415 C.2       8 UNK         0.4948 
     53 O          28.5252   31.9976    4.4464 O.2       8 UNK        -0.5275 
     54 N          30.0915   33.6180    4.6568 N.am      9 UNK        -0.4246 
     55 CA         30.3438   33.5093    6.0915 C.3       9 UNK         0.0261 
     56 CB         30.8909   34.8540    6.6046 C.3       9 UNK        -0.1959 
     57 C          31.3092   32.3378    6.3501 C.2       9 UNK         0.5033 
     58 O          32.4891   32.5574    6.6307 O.2       9 UNK        -0.5390 
     59 N          30.7824   31.1159    6.1980 N.am      10 UNK        -0.4215 
     60 CA         31.4850   29.8310    6.2300 C.3       10 UNK         0.0240 
     61 CB         32.0933   29.5508    7.6240 C.3       10 UNK        -0.1982 
     62 C          32.4741   29.6975    5.0524 C.2       10 UNK         0.4970 
     63 O          32.1061   30.0371    3.9260 O.2       10 UNK        -0.4916 
     64 N          33.6799   29.1850    5.3173 N.am      11 UNK        -0.4279 
     65 CA         34.7851   29.0442    4.3589 C.3       11 UNK         0.1003 
     66 C          36.0405   29.7885    4.8813 C.2       11 UNK         0.5709 
     67 N          36.9311   30.2015    3.9900 N.am      11 UNK        -0.7358 
     68 O          36.2328   29.9670    6.0834 O.2       11 UNK        -0.4999 
     69 C69        35.1166   27.5556    4.0655 C.3       12 UNK        -0.0954 
     70 S70        33.7469   26.6874    3.2355 S.3       12 UNK        -0.2268 
     71 C71        33.1531   25.5887    4.5534 C.3       12 UNK         0.0203 
     72 H72        28.7295   17.1008   -2.5352 H         1 UNK         0.0888 
     73 H73        27.0772   17.6686   -2.2889 H         1 UNK         0.0888 
     74 H74        27.8740   17.9233   -3.8428 H         1 UNK         0.0888 
     75 H75        26.9702   19.5643   -1.1014 H         1 UNK         0.3017 
     76 H76        28.6493   21.8271   -1.6705 H         1 UNK         0.0873 
     77 H77        28.9440   20.5335    1.0970 H         1 UNK         0.0745 
     78 H78        30.1810   20.6203   -0.1175 H         1 UNK         0.0745 
     79 H79        28.4498   22.4317    2.7797 H         1 UNK         0.0705 
     80 H80        30.0432   21.7565    3.0429 H         1 UNK         0.0705 
     81 H81        32.0433   23.4426    3.2520 H         1 UNK         0.1334 
     82 H82        31.0257   27.0268    5.3560 H         1 UNK         0.1417 
     83 H83        27.9289   24.5868    3.6863 H         1 UNK         0.1562 
     84 H84        28.7457   27.6120    5.7778 H         1 UNK         0.0748 
     85 H85        27.5418   26.3596    5.6157 H         1 UNK         0.0748 
     86 H86        29.6513   28.9920    3.7716 H         1 UNK         0.0940 
     87 H87        28.5230   29.7184    2.6659 H         1 UNK         0.0940 
     88 H88        30.2045   27.2014    2.1932 H         1 UNK         0.0703 
     89 H89        27.7219   27.8363    0.9175 H         1 UNK         0.3081 
     90 H90        27.4841   27.2370   -1.6073 H         1 UNK         0.0719 
     91 H91        28.5992   24.3989   -1.8144 H         1 UNK         0.0809 
     92 H92        27.3841   25.0897   -2.8907 H         1 UNK         0.0809 
     93 H93        29.0062   25.7620   -2.8442 H         1 UNK         0.0809 
     94 H94        26.4607   24.7650   -0.5186 H         1 UNK         0.2990 
     95 H95        24.5098   26.0257    1.9785 H         1 UNK         0.0690 
     96 H96        22.3395   25.8664    0.7626 H         1 UNK         0.0788 
     97 H97        23.1665   26.1060   -0.7775 H         1 UNK         0.0788 
     98 H98        23.1352   27.3921    0.4207 H         1 UNK         0.0788 
     99 H99        24.0638   23.9372   -0.0348 H         1 UNK         0.2993 
    100 H100       24.9525   21.4577    2.2122 H         1 UNK         0.0949 
    101 H101       22.9298   21.9642    0.8105 H         1 UNK         0.0767 
    102 H102       23.9352   22.0040   -0.6360 H         1 UNK         0.0767 
    103 H103       23.7644   20.5168    0.2826 H         1 UNK         0.0767 
    104 H104       26.7697   20.7216    1.1790 H         1 UNK         0.3013 
    105 H105       32.1713   27.7446    1.4303 H         1 UNK         0.3121 
    106 H106       32.4601   29.0598   -0.9684 H         1 UNK         0.0774 
    107 H107       34.8821   28.6971   -0.6714 H         1 UNK         0.0815 
    108 H108       34.6786   28.4655    1.0557 H         1 UNK         0.0815 
    109 H109       33.9998   27.2988   -0.0820 H         1 UNK         0.0815 
    110 H110       32.7218   30.5783    2.2069 H         1 UNK         0.2987 
    111 H111       33.6480   33.1427    0.9441 H         1 UNK         0.0949 
    112 H112       35.1946   32.1988    2.6908 H         1 UNK         0.0806 
    113 H113       33.8716   32.2118    3.8586 H         1 UNK         0.0806 
    114 H114       34.4803   33.7187    3.1933 H         1 UNK         0.0806 
    115 H115       30.8577   31.6856    1.4971 H         1 UNK         0.3010 
    116 H116       28.7760   32.1276    1.9967 H         1 UNK         0.0829 
    117 H117       28.9600   34.2804    0.7712 H         1 UNK         0.0813 
    118 H118       27.8622   34.4139    2.1351 H         1 UNK         0.0813 
    119 H119       29.4711   35.1048    2.2417 H         1 UNK         0.0813 
    120 H120       30.7458   34.1882    4.1255 H         1 UNK         0.3038 
    121 H121       29.4057   33.3031    6.6116 H         1 UNK         0.0769 
    122 H122       30.1705   35.6579    6.4530 H         1 UNK         0.0811 
    123 H123       31.8161   35.1344    6.0990 H         1 UNK         0.0811 
    124 H124       31.1036   34.8057    7.6733 H         1 UNK         0.0811 
    125 H125       29.8247   31.0826    5.8634 H         1 UNK         0.3204 
    126 H126       30.7095   29.0865    6.0618 H         1 UNK         0.0748 
    127 H127       31.3466   29.6785    8.4080 H         1 UNK         0.0771 
    128 H128       32.4563   28.5250    7.7001 H         1 UNK         0.0771 
    129 H129       32.9258   30.2174    7.8530 H         1 UNK         0.0771 
    130 H130       33.9281   28.9977    6.2781 H         1 UNK         0.2980 
    131 H131       34.5108   29.5232    3.4174 H         1 UNK         0.0545 
    132 H132       37.7598   30.6751    4.3138 H         1 UNK         0.3459 
    133 H133       36.8012   30.0412    3.0038 H         1 UNK         0.3459 
    134 H134       35.9822   27.4823    3.4046 H         1 UNK         0.0616 
    135 H135       35.3927   27.0301    4.9814 H         1 UNK         0.0616 
    136 H136       33.2809   26.0668    5.5259 H         1 UNK         0.0634 
    137 H137       33.7539   24.6782    4.5687 H         1 UNK         0.0634 
@<TRIPOS>BOND
     1    1    2 1    
     2    1   72 1    
     3    1   73 1    
     4    1   74 1    
     5    2    3 2    
     6    2    4 am   BACKBONE|DICT|INTERRES
     7    4    5 1    
     8    4   75 1    
     9    5    6 1    
    10    5   35 1    
    11    5   76 1    
    12    6    7 1    
    13    6   77 1    
    14    6   78 1    
    15    7    8 1    
    16    8    9 1    
    17    8   79 1    
    18    8   80 1    
    19    9   10 ar   
    20    9   14 ar   
    21   10   11 ar   
    22   10   81 1    
    23   11   12 ar   
    24   11   71 1    
    25   12   13 ar   
    26   12   82 1    
    27   13   14 ar   
    28   13   15 1    
    29   14   83 1    
    30   15   16 1    
    31   15   84 1    
    32   15   85 1    
    33   16   17 1    
    34   17   18 1    
    35   17   86 1    
    36   17   87 1    
    37   18   19 1    
    38   18   37 1    
    39   18   88 1    
    40   19   20 am   BACKBONE|DICT|INTERRES
    41   19   89 1    
    42   20   21 2    
    43   20   22 1    
    44   22   23 1    
    45   22   24 1    
    46   22   90 1    
    47   23   91 1    
    48   23   92 1    
    49   23   93 1    
    50   24   25 am   BACKBONE|DICT|INTERRES
    51   24   94 1    
    52   25   26 2    
    53   25   27 1    
    54   27   28 1    
    55   27   29 1    
    56   27   95 1    
    57   28   96 1    
    58   28   97 1    
    59   28   98 1    
    60   29   30 am   BACKBONE|DICT|INTERRES
    61   29   99 1    
    62   30   31 2    
    63   30   32 1    
    64   32   33 1    
    65   32   34 1    
    66   32  100 1    
    67   33  101 1    
    68   33  102 1    
    69   33  103 1    
    70   34   35 am   BACKBONE|DICT|INTERRES
    71   34  104 1    
    72   35   36 2    
    73   37   38 2    
    74   37   39 am   BACKBONE|DICT|INTERRES
    75   39   40 1    
    76   39  105 1    
    77   40   41 1    
    78   40   42 1    
    79   40  106 1    
    80   41  107 1    
    81   41  108 1    
    82   41  109 1    
    83   42   43 2    
    84   42   44 am   BACKBONE|DICT|INTERRES
    85   44   45 1    
    86   44  110 1    
    87   45   46 1    
    88   45   47 1    
    89   45  111 1    
    90   46  112 1    
    91   46  113 1    
    92   46  114 1    
    93   47   48 2    
    94   47   49 am   BACKBONE|DICT|INTERRES
    95   49   50 1    
    96   49  115 1    
    97   50   51 1    
    98   50   52 1    
    99   50  116 1    
   100   51  117 1    
   101   51  118 1    
   102   51  119 1    
   103   52   53 2    
   104   52   54 am   BACKBONE|DICT|INTERRES
   105   54   55 1    
   106   54  120 1    
   107   55   56 1    
   108   55   57 1    
   109   55  121 1    
   110   56  122 1    
   111   56  123 1    
   112   56  124 1    
   113   57   58 2    
   114   57   59 am   BACKBONE|DICT|INTERRES
   115   59   60 1    
   116   59  125 1    
   117   60   61 1    
   118   60   62 1    
   119   60  126 1    
   120   61  127 1    
   121   61  128 1    
   122   61  129 1    
   123   62   63 2    
   124   62   64 am   BACKBONE|DICT|INTERRES
   125   64   65 1    
   126   64  130 1    
   127   65   66 1    
   128   65   69 1    
   129   65  131 1    
   130   66   67 am   BACKBONE|DICT|INTERRES
   131   66   68 2    
   132   67  132 1    
   133   67  133 1    
   134   69   70 1    
   135   69  134 1    
   136   69  135 1    
   137   70   71 1    
   138   71  136 1    
   139   71  137 1    
@<TRIPOS>SUBSTRUCTURE
     1 UNK         1 GROUP             0       ****    0 ROOT    
