@<TRIPOS>MOLECULE
3R136
137   139    1
SMALL
USER_CHARGES


@<TRIPOS>ATOM
      1 CA         31.4847   23.5910   -3.1377 C.3       0 UNK        -0.1979 
      2 C          30.6637   23.6492   -1.8590 C.2       0 UNK         0.4864 
      3 O          30.1863   24.7227   -1.4899 O.2       0 UNK        -0.5359 
      4 N          30.4960   22.5065   -1.1791 N.am      1 UNK        -0.4318 
      5 CA         29.7307   22.3667    0.0670 C.3       1 UNK         0.0824 
      6 C6         29.8448   20.9434    0.6632 C.3       12 UNK        -0.0944 
      7 S7         31.5691   20.5291    1.0886 S.3       12 UNK        -0.2672 
      8 C8         31.5742   20.7463    2.8992 C.3       12 UNK         0.0333 
      9 C9         31.2889   22.1813    3.3307 C.ar      12 UNK        -0.0807 
     10 C10        32.1443   23.2179    2.9479 C.ar      12 UNK        -0.0894 
     11 C11        31.9083   24.5279    3.3736 C.ar      12 UNK        -0.0804 
     12 C12        30.8165   24.7974    4.2034 C.ar      12 UNK        -0.0824 
     13 C13        29.9415   23.7720    4.5901 C.ar      12 UNK        -0.0762 
     14 C14        30.1886   22.4681    4.1448 C.ar      12 UNK        -0.0782 
     15 C15        28.7403   24.0065    5.5122 C.3       12 UNK         0.0230 
     16 S16        28.1608   25.7339    5.6687 S.3       12 UNK        -0.2608 
     17 C17        27.6734   26.1230    3.9566 C.3       12 UNK        -0.0989 
     18 CA         28.3345   27.4378    3.4602 C.3       5 UNK         0.0716 
     19 N          28.9200   27.3043    2.1256 N.am      5 UNK        -0.4135 
     20 C          29.7682   28.1792    1.5676 C.2       4 UNK         0.5031 
     21 O          30.2324   29.1549    2.1559 O.2       4 UNK        -0.5229 
     22 CA         30.1549   27.9353    0.0992 C.3       4 UNK         0.0329 
     23 CB         31.4988   27.1968    0.0133 C.3       4 UNK        -0.2001 
     24 N          29.1352   27.1885   -0.6443 N.am      4 UNK        -0.4303 
     25 C          27.9179   27.6670   -0.9410 C.2       3 UNK         0.5044 
     26 O          27.5479   28.8076   -0.6616 O.2       3 UNK        -0.5152 
     27 CA         26.9276   26.6864   -1.5915 C.3       3 UNK         0.0319 
     28 CB         27.3198   26.3825   -3.0464 C.3       3 UNK        -0.2001 
     29 N          26.7956   25.4335   -0.8403 N.am      3 UNK        -0.4354 
     30 C          26.3372   25.3288    0.4150 C.2       2 UNK         0.4964 
     31 O          25.9728   26.2919    1.0875 O.2       2 UNK        -0.5047 
     32 CA         26.3431   23.9349    1.0672 C.3       2 UNK         0.0288 
     33 CB         25.1879   23.0535    0.5515 C.3       2 UNK        -0.2113 
     34 N          27.6532   23.2734    0.9780 N.am      2 UNK        -0.4145 
     35 C          28.2535   22.7726   -0.1110 C.2       1 UNK         0.5006 
     36 O          27.7063   22.6621   -1.2120 O.2       1 UNK        -0.5103 
     37 C          27.3640   28.6324    3.5115 C.2       5 UNK         0.5055 
     38 O          27.5262   29.5125    4.3589 O.2       5 UNK        -0.5220 
     39 N          26.4139   28.6604    2.5632 N.am      6 UNK        -0.4450 
     40 CA         25.4389   29.7349    2.3576 C.3       6 UNK         0.0367 
     41 CB         24.4697   29.3394    1.2328 C.3       6 UNK        -0.1929 
     42 C          26.0875   31.0967    2.0608 C.2       6 UNK         0.5070 
     43 O          25.5725   32.1197    2.5113 O.2       6 UNK        -0.5237 
     44 N          27.2440   31.0904    1.3840 N.am      7 UNK        -0.4739 
     45 CA         28.1169   32.2486    1.1568 C.3       7 UNK         0.0276 
     46 CB         29.0349   31.9452   -0.0414 C.3       7 UNK        -0.1927 
     47 C          28.9156   32.6779    2.4123 C.2       7 UNK         0.5013 
     48 O          30.0781   33.0660    2.2903 O.2       7 UNK        -0.5193 
     49 N          28.2759   32.6127    3.5896 N.am      8 UNK        -0.4253 
     50 CA         28.7753   32.9719    4.9214 C.3       8 UNK         0.0242 
     51 CB         28.9470   34.5023    5.0332 C.3       8 UNK        -0.2000 
     52 C          30.0383   32.1918    5.3386 C.2       8 UNK         0.4948 
     53 O          30.9668   32.7900    5.8862 O.2       8 UNK        -0.5275 
     54 N          30.0385   30.8730    5.0817 N.am      9 UNK        -0.4246 
     55 CA         31.1269   29.9195    5.3439 C.3       9 UNK         0.0261 
     56 CB         31.2821   29.6708    6.8585 C.3       9 UNK        -0.1959 
     57 C          32.4441   30.3360    4.6627 C.2       9 UNK         0.5033 
     58 O          33.4579   30.5437    5.3335 O.2       9 UNK        -0.5390 
     59 N          32.3958   30.4550    3.3294 N.am      10 UNK        -0.4215 
     60 CA         33.4741   30.9557    2.4697 C.3       10 UNK         0.0240 
     61 CB         32.9640   31.0485    1.0223 C.3       10 UNK        -0.1982 
     62 C          34.7851   30.1503    2.5325 C.2       10 UNK         0.4970 
     63 O          35.8420   30.7103    2.2382 O.2       10 UNK        -0.4916 
     64 N          34.7034   28.8721    2.9234 N.am      11 UNK        -0.4279 
     65 CA         35.8614   28.0145    3.2109 C.3       11 UNK         0.1003 
     66 C          36.5624   28.2967    4.5744 C.2       11 UNK         0.5709 
     67 N          36.0215   29.1343    5.4526 N.am      11 UNK        -0.7358 
     68 O          37.6350   27.7553    4.8326 O.2       11 UNK        -0.4999 
     69 C69        35.5291   26.5132    3.0073 C.3       12 UNK        -0.0954 
     70 S70        34.2116   25.8666    4.0987 S.3       12 UNK        -0.2268 
     71 C71        32.8363   25.6469    2.9306 C.3       12 UNK         0.0203 
     72 H72        30.8766   23.9042   -3.9858 H         1 UNK         0.0888 
     73 H73        32.3392   24.2629   -3.0635 H         1 UNK         0.0888 
     74 H74        31.8575   22.5866   -3.3379 H         1 UNK         0.0888 
     75 H75        30.9060   21.6539   -1.5314 H         1 UNK         0.3017 
     76 H76        30.1712   23.0720    0.7748 H         1 UNK         0.0873 
     77 H77        29.2262   20.8393    1.5568 H         1 UNK         0.0745 
     78 H78        29.4763   20.2002   -0.0466 H         1 UNK         0.0745 
     79 H79        30.8561   20.0535    3.3407 H         1 UNK         0.0705 
     80 H80        32.5529   20.4540    3.2822 H         1 UNK         0.0705 
     81 H81        32.9975   23.0020    2.3190 H         1 UNK         0.1334 
     82 H82        30.6625   25.8089    4.5491 H         1 UNK         0.1417 
     83 H83        29.5303   21.6667    4.4532 H         1 UNK         0.1562 
     84 H84        29.0006   23.6458    6.5081 H         1 UNK         0.0748 
     85 H85        27.8982   23.3985    5.1772 H         1 UNK         0.0748 
     86 H86        26.5828   26.1508    3.9007 H         1 UNK         0.0940 
     87 H87        27.9670   25.2880    3.3216 H         1 UNK         0.0940 
     88 H88        29.1640   27.6818    4.1240 H         1 UNK         0.0703 
     89 H89        28.5745   26.5561    1.5459 H         1 UNK         0.3081 
     90 H90        30.2732   28.9101   -0.3768 H         1 UNK         0.0719 
     91 H91        32.2785   27.7209    0.5665 H         1 UNK         0.0809 
     92 H92        31.8361   27.1123   -1.0199 H         1 UNK         0.0809 
     93 H93        31.4265   26.1881    0.4205 H         1 UNK         0.0809 
     94 H94        29.3912   26.2478   -0.9478 H         1 UNK         0.2990 
     95 H95        25.9479   27.1690   -1.6000 H         1 UNK         0.0690 
     96 H96        26.5624   25.7737   -3.5404 H         1 UNK         0.0788 
     97 H97        28.2692   25.8495   -3.1097 H         1 UNK         0.0788 
     98 H98        27.4222   27.3025   -3.6234 H         1 UNK         0.0788 
     99 H99        27.1095   24.5823   -1.2967 H         1 UNK         0.2993 
    100 H100       26.1643   24.0885    2.1326 H         1 UNK         0.0949 
    101 H101       25.1948   22.0731    1.0279 H         1 UNK         0.0767 
    102 H102       24.2245   23.5146    0.7731 H         1 UNK         0.0767 
    103 H103       25.2277   22.9026   -0.5274 H         1 UNK         0.0767 
    104 H104       28.1934   23.2929    1.8317 H         1 UNK         0.3013 
    105 H105       26.3389   27.8671    1.9280 H         1 UNK         0.3121 
    106 H106       24.8679   29.8383    3.2825 H         1 UNK         0.0774 
    107 H107       24.9901   29.1922    0.2856 H         1 UNK         0.0815 
    108 H108       23.7162   30.1123    1.0758 H         1 UNK         0.0815 
    109 H109       23.9425   28.4152    1.4702 H         1 UNK         0.0815 
    110 H110       27.5669   30.2043    1.0125 H         1 UNK         0.2987 
    111 H111       27.4871   33.0981    0.8844 H         1 UNK         0.0949 
    112 H112       29.7413   31.1490    0.1916 H         1 UNK         0.0806 
    113 H113       28.4618   31.6404   -0.9173 H         1 UNK         0.0806 
    114 H114       29.6161   32.8236   -0.3246 H         1 UNK         0.0806 
    115 H115       27.3140   32.2924    3.5564 H         1 UNK         0.3010 
    116 H116       27.9961   32.6766    5.6257 H         1 UNK         0.0829 
    117 H117       29.7415   34.8674    4.3814 H         1 UNK         0.0813 
    118 H118       28.0283   35.0255    4.7680 H         1 UNK         0.0813 
    119 H119       29.2018   34.7950    6.0525 H         1 UNK         0.0813 
    120 H120       29.2065   30.4804    4.6474 H         1 UNK         0.3038 
    121 H121       30.8364   28.9737    4.8891 H         1 UNK         0.0769 
    122 H122       32.0389   28.9096    7.0520 H         1 UNK         0.0811 
    123 H123       31.5866   30.5734    7.3894 H         1 UNK         0.0811 
    124 H124       30.3491   29.3201    7.2993 H         1 UNK         0.0811 
    125 H125       31.5248   30.1994    2.8633 H         1 UNK         0.3204 
    126 H126       33.7074   31.9662    2.8111 H         1 UNK         0.0748 
    127 H127       33.7364   31.4369    0.3570 H         1 UNK         0.0771 
    128 H128       32.6585   30.0761    0.6373 H         1 UNK         0.0771 
    129 H129       32.1090   31.7206    0.9487 H         1 UNK         0.0771 
    130 H130       33.8020   28.4994    3.1767 H         1 UNK         0.2980 
    131 H131       36.6200   28.2518    2.4626 H         1 UNK         0.0545 
    132 H132       35.1351   29.5971    5.2719 H         1 UNK         0.3459 
    133 H133       36.5001   29.3038    6.3223 H         1 UNK         0.3459 
    134 H134       35.2599   26.3456    1.9640 H         1 UNK         0.0616 
    135 H135       36.4213   25.9054    3.1680 H         1 UNK         0.0616 
    136 H136       32.2874   26.5857    2.8466 H         1 UNK         0.0634 
    137 H137       33.2185   25.4180    1.9352 H         1 UNK         0.0634 
@<TRIPOS>BOND
     1    1    2 1    
     2    1   72 1    
     3    1   73 1    
     4    1   74 1    
     5    2    3 2    
     6    2    4 am   BACKBONE|DICT|INTERRES
     7    4    5 1    
     8    4   75 1    
     9    5    6 1    
    10    5   35 1    
    11    5   76 1    
    12    6    7 1    
    13    6   77 1    
    14    6   78 1    
    15    7    8 1    
    16    8    9 1    
    17    8   79 1    
    18    8   80 1    
    19    9   10 ar   
    20    9   14 ar   
    21   10   11 ar   
    22   10   81 1    
    23   11   12 ar   
    24   11   71 1    
    25   12   13 ar   
    26   12   82 1    
    27   13   14 ar   
    28   13   15 1    
    29   14   83 1    
    30   15   16 1    
    31   15   84 1    
    32   15   85 1    
    33   16   17 1    
    34   17   18 1    
    35   17   86 1    
    36   17   87 1    
    37   18   19 1    
    38   18   37 1    
    39   18   88 1    
    40   19   20 am   BACKBONE|DICT|INTERRES
    41   19   89 1    
    42   20   21 2    
    43   20   22 1    
    44   22   23 1    
    45   22   24 1    
    46   22   90 1    
    47   23   91 1    
    48   23   92 1    
    49   23   93 1    
    50   24   25 am   BACKBONE|DICT|INTERRES
    51   24   94 1    
    52   25   26 2    
    53   25   27 1    
    54   27   28 1    
    55   27   29 1    
    56   27   95 1    
    57   28   96 1    
    58   28   97 1    
    59   28   98 1    
    60   29   30 am   BACKBONE|DICT|INTERRES
    61   29   99 1    
    62   30   31 2    
    63   30   32 1    
    64   32   33 1    
    65   32   34 1    
    66   32  100 1    
    67   33  101 1    
    68   33  102 1    
    69   33  103 1    
    70   34   35 am   BACKBONE|DICT|INTERRES
    71   34  104 1    
    72   35   36 2    
    73   37   38 2    
    74   37   39 am   BACKBONE|DICT|INTERRES
    75   39   40 1    
    76   39  105 1    
    77   40   41 1    
    78   40   42 1    
    79   40  106 1    
    80   41  107 1    
    81   41  108 1    
    82   41  109 1    
    83   42   43 2    
    84   42   44 am   BACKBONE|DICT|INTERRES
    85   44   45 1    
    86   44  110 1    
    87   45   46 1    
    88   45   47 1    
    89   45  111 1    
    90   46  112 1    
    91   46  113 1    
    92   46  114 1    
    93   47   48 2    
    94   47   49 am   BACKBONE|DICT|INTERRES
    95   49   50 1    
    96   49  115 1    
    97   50   51 1    
    98   50   52 1    
    99   50  116 1    
   100   51  117 1    
   101   51  118 1    
   102   51  119 1    
   103   52   53 2    
   104   52   54 am   BACKBONE|DICT|INTERRES
   105   54   55 1    
   106   54  120 1    
   107   55   56 1    
   108   55   57 1    
   109   55  121 1    
   110   56  122 1    
   111   56  123 1    
   112   56  124 1    
   113   57   58 2    
   114   57   59 am   BACKBONE|DICT|INTERRES
   115   59   60 1    
   116   59  125 1    
   117   60   61 1    
   118   60   62 1    
   119   60  126 1    
   120   61  127 1    
   121   61  128 1    
   122   61  129 1    
   123   62   63 2    
   124   62   64 am   BACKBONE|DICT|INTERRES
   125   64   65 1    
   126   64  130 1    
   127   65   66 1    
   128   65   69 1    
   129   65  131 1    
   130   66   67 am   BACKBONE|DICT|INTERRES
   131   66   68 2    
   132   67  132 1    
   133   67  133 1    
   134   69   70 1    
   135   69  134 1    
   136   69  135 1    
   137   70   71 1    
   138   71  136 1    
   139   71  137 1    
@<TRIPOS>SUBSTRUCTURE
     1 UNK         1 GROUP             0       ****    0 ROOT    
