@<TRIPOS>MOLECULE
3R136
137   139    1
SMALL
USER_CHARGES


@<TRIPOS>ATOM
      1 CA         26.2191   18.6838    0.1180 C.3       0 UNK        -0.1979 
      2 C          27.0625   19.7804   -0.5159 C.2       0 UNK         0.4864 
      3 O          27.4872   19.6390   -1.6639 O.2       0 UNK        -0.5359 
      4 N          27.3143   20.8685    0.2237 N.am      1 UNK        -0.4318 
      5 CA         28.0503   22.0443   -0.2449 C.3       1 UNK         0.0824 
      6 C6         28.4892   22.9327    0.9467 C.3       12 UNK        -0.0944 
      7 S7         29.6358   24.2691    0.4575 S.3       12 UNK        -0.2672 
      8 C8         31.2128   23.7189    1.1902 C.3       12 UNK         0.0333 
      9 C9         31.4671   24.3054    2.5761 C.ar      12 UNK        -0.0807 
     10 C10        32.7090   24.8759    2.8715 C.ar      12 UNK        -0.0894 
     11 C11        32.9745   25.3942    4.1434 C.ar      12 UNK        -0.0804 
     12 C12        31.9758   25.3524    5.1225 C.ar      12 UNK        -0.0824 
     13 C13        30.7324   24.7728    4.8504 C.ar      12 UNK        -0.0762 
     14 C14        30.4933   24.2424    3.5780 C.ar      12 UNK        -0.0782 
     15 C15        29.6901   24.6556    5.9611 C.3       12 UNK         0.0230 
     16 S16        27.9701   24.8996    5.3986 S.3       12 UNK        -0.2608 
     17 C17        27.8733   26.7140    5.2416 C.3       12 UNK        -0.0989 
     18 CA         28.1832   27.2371    3.8137 C.3       5 UNK         0.0716 
     19 N          27.4211   26.5862    2.7353 N.am      5 UNK        -0.4135 
     20 C          26.0913   26.5462    2.5660 C.2       4 UNK         0.5031 
     21 O          25.2885   27.0109    3.3778 O.2       4 UNK        -0.5229 
     22 CA         25.5759   25.9538    1.2387 C.3       4 UNK         0.0329 
     23 CB         24.1681   26.4703    0.8755 C.3       4 UNK        -0.2001 
     24 N          26.4830   26.1448    0.0981 N.am      4 UNK        -0.4303 
     25 C          27.0026   27.2965   -0.3635 C.2       3 UNK         0.5044 
     26 O          26.8358   28.3894    0.1817 O.2       3 UNK        -0.5152 
     27 CA         27.8828   27.2220   -1.6288 C.3       3 UNK         0.0319 
     28 CB         29.3316   27.6349   -1.3201 C.3       3 UNK        -0.2001 
     29 N          27.9035   25.8904   -2.2386 N.am      3 UNK        -0.4354 
     30 C          26.9739   25.4077   -3.0752 C.2       2 UNK         0.4964 
     31 O          26.0220   26.0638   -3.4975 O.2       2 UNK        -0.5047 
     32 CA         27.1173   23.9295   -3.4836 C.3       2 UNK         0.0288 
     33 CB         27.9179   23.8058   -4.7901 C.3       2 UNK        -0.2113 
     34 N          27.7464   23.1022   -2.4464 N.am      2 UNK        -0.4145 
     35 C          27.1935   22.8340   -1.2544 C.2       1 UNK         0.5006 
     36 O          26.0764   23.2304   -0.9144 O.2       1 UNK        -0.5103 
     37 C          28.0914   28.7805    3.7794 C.2       5 UNK         0.5055 
     38 O          29.1086   29.4461    3.9723 O.2       5 UNK        -0.5220 
     39 N          26.8942   29.3263    3.5309 N.am      6 UNK        -0.4450 
     40 CA         26.5678   30.7528    3.5103 C.3       6 UNK         0.0367 
     41 CB         25.0646   30.9241    3.2393 C.3       6 UNK        -0.1929 
     42 C          27.3924   31.5748    2.5079 C.2       6 UNK         0.5070 
     43 O          27.8524   32.6597    2.8637 O.2       6 UNK        -0.5237 
     44 N          27.5843   31.0483    1.2895 N.am      7 UNK        -0.4739 
     45 CA         28.4149   31.6868    0.2624 C.3       7 UNK         0.0276 
     46 CB         27.8582   31.3611   -1.1336 C.3       7 UNK        -0.1927 
     47 C          29.9020   31.3069    0.3824 C.2       7 UNK         0.5013 
     48 O          30.7364   31.9733   -0.2309 O.2       7 UNK        -0.5193 
     49 N          30.2148   30.2623    1.1652 N.am      8 UNK        -0.4253 
     50 CA         31.5836   29.8665    1.5096 C.3       8 UNK         0.0242 
     51 CB         31.6082   28.3969    1.9639 C.3       8 UNK        -0.2000 
     52 C          32.1649   30.8056    2.5820 C.2       8 UNK         0.4948 
     53 O          33.3159   31.2241    2.4580 O.2       8 UNK        -0.5275 
     54 N          31.3247   31.1611    3.5682 N.am      9 UNK        -0.4246 
     55 CA         31.4960   32.2263    4.5612 C.3       9 UNK         0.0261 
     56 CB         31.4304   33.6062    3.8713 C.3       9 UNK        -0.1959 
     57 C          32.7434   32.0552    5.4481 C.2       9 UNK         0.5033 
     58 O          33.5500   32.9816    5.5525 O.2       9 UNK        -0.5390 
     59 N          32.8509   30.8774    6.0839 N.am      10 UNK        -0.4215 
     60 CA         33.9164   30.4486    7.0021 C.3       10 UNK         0.0240 
     61 CB         33.9315   31.3118    8.2826 C.3       10 UNK        -0.1982 
     62 C          35.2865   30.3975    6.3015 C.2       10 UNK         0.4970 
     63 O          36.0907   31.3216    6.4377 O.2       10 UNK        -0.4916 
     64 N          35.4898   29.3160    5.5398 N.am      11 UNK        -0.4279 
     65 CA         36.6586   29.0225    4.6945 C.3       11 UNK         0.1003 
     66 C          38.0299   29.2108    5.4031 C.2       11 UNK         0.5709 
     67 N          39.0048   29.8043    4.7276 N.am      11 UNK        -0.7358 
     68 O          38.2277   28.7763    6.5367 O.2       11 UNK        -0.4999 
     69 C69        36.5748   27.5904    4.0996 C.3       12 UNK        -0.0954 
     70 S70        34.9608   27.2002    3.3410 S.3       12 UNK        -0.2268 
     71 C71        34.3623   25.9204    4.4911 C.3       12 UNK         0.0203 
     72 H72        26.7798   17.7500    0.1494 H         1 UNK         0.0888 
     73 H73        25.9216   18.9348    1.1360 H         1 UNK         0.0888 
     74 H74        25.3154   18.5197   -0.4684 H         1 UNK         0.0888 
     75 H75        26.9130   20.9406    1.1477 H         1 UNK         0.3017 
     76 H76        28.9517   21.6873   -0.7488 H         1 UNK         0.0873 
     77 H77        28.9706   22.3087    1.7008 H         1 UNK         0.0745 
     78 H78        27.6251   23.3794    1.4423 H         1 UNK         0.0745 
     79 H79        31.2505   22.6301    1.2404 H         1 UNK         0.0705 
     80 H80        32.0104   24.0167    0.5079 H         1 UNK         0.0705 
     81 H81        33.4834   24.8999    2.1168 H         1 UNK         0.1334 
     82 H82        32.1803   25.7352    6.1131 H         1 UNK         0.1417 
     83 H83        29.5433   23.7736    3.3716 H         1 UNK         0.1562 
     84 H84        29.9042   25.3537    6.7718 H         1 UNK         0.0748 
     85 H85        29.7688   23.6566    6.3916 H         1 UNK         0.0748 
     86 H86        28.5511   27.1683    5.9671 H         1 UNK         0.0940 
     87 H87        26.8698   27.0143    5.5489 H         1 UNK         0.0940 
     88 H88        29.2255   26.9945    3.6026 H         1 UNK         0.0703 
     89 H89        27.9858   26.1922    1.9967 H         1 UNK         0.3081 
     90 H90        25.5036   24.8769    1.3969 H         1 UNK         0.0719 
     91 H91        24.1582   27.5535    0.7478 H         1 UNK         0.0809 
     92 H92        23.8086   26.0200   -0.0499 H         1 UNK         0.0809 
     93 H93        23.4444   26.2259    1.6541 H         1 UNK         0.0809 
     94 H94        26.6713   25.3038   -0.4324 H         1 UNK         0.2990 
     95 H95        27.4726   27.9352   -2.3467 H         1 UNK         0.0690 
     96 H96        29.9384   27.6552   -2.2254 H         1 UNK         0.0788 
     97 H97        29.8082   26.9557   -0.6150 H         1 UNK         0.0788 
     98 H98        29.3768   28.6306   -0.8851 H         1 UNK         0.0788 
     99 H99        28.6537   25.2778   -1.9505 H         1 UNK         0.2993 
    100 H100       26.1114   23.5409   -3.6588 H         1 UNK         0.0949 
    101 H101       27.9583   22.7720   -5.1343 H         1 UNK         0.0767 
    102 H102       27.4574   24.3924   -5.5865 H         1 UNK         0.0767 
    103 H103       28.9422   24.1623   -4.6732 H         1 UNK         0.0767 
    104 H104       28.6636   22.7332   -2.6545 H         1 UNK         0.3013 
    105 H105       26.1204   28.6781    3.4036 H         1 UNK         0.3121 
    106 H106       26.7815   31.1452    4.5067 H         1 UNK         0.0774 
    107 H107       24.7859   31.9788    3.2312 H         1 UNK         0.0815 
    108 H108       24.7788   30.5024    2.2745 H         1 UNK         0.0815 
    109 H109       24.4646   30.4372    4.0083 H         1 UNK         0.0815 
    110 H110       27.1787   30.1442    1.0575 H         1 UNK         0.2987 
    111 H111       28.3619   32.7715    0.3821 H         1 UNK         0.0949 
    112 H112       27.8613   30.2933   -1.3409 H         1 UNK         0.0806 
    113 H113       26.8332   31.7159   -1.2405 H         1 UNK         0.0806 
    114 H114       28.4496   31.8445   -1.9124 H         1 UNK         0.0806 
    115 H115       29.4657   29.8093    1.6684 H         1 UNK         0.3010 
    116 H116       32.1990   29.9500    0.6110 H         1 UNK         0.0829 
    117 H117       31.0246   27.7558    1.3046 H         1 UNK         0.0813 
    118 H118       32.6277   28.0170    1.9492 H         1 UNK         0.0813 
    119 H119       31.2339   28.2658    2.9787 H         1 UNK         0.0813 
    120 H120       30.4342   30.6683    3.6182 H         1 UNK         0.3038 
    121 H121       30.6356   32.1581    5.2288 H         1 UNK         0.0769 
    122 H122       31.4532   34.4128    4.6049 H         1 UNK         0.0811 
    123 H123       30.5102   33.7172    3.2972 H         1 UNK         0.0811 
    124 H124       32.2696   33.7587    3.1916 H         1 UNK         0.0811 
    125 H125       32.1339   30.1896    5.8973 H         1 UNK         0.3204 
    126 H126       33.6715   29.4301    7.3087 H         1 UNK         0.0748 
    127 H127       34.6793   30.9456    8.9871 H         1 UNK         0.0771 
    128 H128       34.1697   32.3553    8.0743 H         1 UNK         0.0771 
    129 H129       32.9671   31.2845    8.7898 H         1 UNK         0.0771 
    130 H130       34.7539   28.6298    5.4809 H         1 UNK         0.2980 
    131 H131       36.6078   29.7321    3.8666 H         1 UNK         0.0545 
    132 H132       38.8568   30.1497    3.7920 H         1 UNK         0.3459 
    133 H133       39.9053   29.9179    5.1663 H         1 UNK         0.3459 
    134 H134       37.3384   27.4619    3.3303 H         1 UNK         0.0616 
    135 H135       36.7968   26.8451    4.8662 H         1 UNK         0.0616 
    136 H136       34.3755   26.3256    5.5040 H         1 UNK         0.0634 
    137 H137       35.0614   25.0831    4.4834 H         1 UNK         0.0634 
@<TRIPOS>BOND
     1    1    2 1    
     2    1   72 1    
     3    1   73 1    
     4    1   74 1    
     5    2    3 2    
     6    2    4 am   BACKBONE|DICT|INTERRES
     7    4    5 1    
     8    4   75 1    
     9    5    6 1    
    10    5   35 1    
    11    5   76 1    
    12    6    7 1    
    13    6   77 1    
    14    6   78 1    
    15    7    8 1    
    16    8    9 1    
    17    8   79 1    
    18    8   80 1    
    19    9   10 ar   
    20    9   14 ar   
    21   10   11 ar   
    22   10   81 1    
    23   11   12 ar   
    24   11   71 1    
    25   12   13 ar   
    26   12   82 1    
    27   13   14 ar   
    28   13   15 1    
    29   14   83 1    
    30   15   16 1    
    31   15   84 1    
    32   15   85 1    
    33   16   17 1    
    34   17   18 1    
    35   17   86 1    
    36   17   87 1    
    37   18   19 1    
    38   18   37 1    
    39   18   88 1    
    40   19   20 am   BACKBONE|DICT|INTERRES
    41   19   89 1    
    42   20   21 2    
    43   20   22 1    
    44   22   23 1    
    45   22   24 1    
    46   22   90 1    
    47   23   91 1    
    48   23   92 1    
    49   23   93 1    
    50   24   25 am   BACKBONE|DICT|INTERRES
    51   24   94 1    
    52   25   26 2    
    53   25   27 1    
    54   27   28 1    
    55   27   29 1    
    56   27   95 1    
    57   28   96 1    
    58   28   97 1    
    59   28   98 1    
    60   29   30 am   BACKBONE|DICT|INTERRES
    61   29   99 1    
    62   30   31 2    
    63   30   32 1    
    64   32   33 1    
    65   32   34 1    
    66   32  100 1    
    67   33  101 1    
    68   33  102 1    
    69   33  103 1    
    70   34   35 am   BACKBONE|DICT|INTERRES
    71   34  104 1    
    72   35   36 2    
    73   37   38 2    
    74   37   39 am   BACKBONE|DICT|INTERRES
    75   39   40 1    
    76   39  105 1    
    77   40   41 1    
    78   40   42 1    
    79   40  106 1    
    80   41  107 1    
    81   41  108 1    
    82   41  109 1    
    83   42   43 2    
    84   42   44 am   BACKBONE|DICT|INTERRES
    85   44   45 1    
    86   44  110 1    
    87   45   46 1    
    88   45   47 1    
    89   45  111 1    
    90   46  112 1    
    91   46  113 1    
    92   46  114 1    
    93   47   48 2    
    94   47   49 am   BACKBONE|DICT|INTERRES
    95   49   50 1    
    96   49  115 1    
    97   50   51 1    
    98   50   52 1    
    99   50  116 1    
   100   51  117 1    
   101   51  118 1    
   102   51  119 1    
   103   52   53 2    
   104   52   54 am   BACKBONE|DICT|INTERRES
   105   54   55 1    
   106   54  120 1    
   107   55   56 1    
   108   55   57 1    
   109   55  121 1    
   110   56  122 1    
   111   56  123 1    
   112   56  124 1    
   113   57   58 2    
   114   57   59 am   BACKBONE|DICT|INTERRES
   115   59   60 1    
   116   59  125 1    
   117   60   61 1    
   118   60   62 1    
   119   60  126 1    
   120   61  127 1    
   121   61  128 1    
   122   61  129 1    
   123   62   63 2    
   124   62   64 am   BACKBONE|DICT|INTERRES
   125   64   65 1    
   126   64  130 1    
   127   65   66 1    
   128   65   69 1    
   129   65  131 1    
   130   66   67 am   BACKBONE|DICT|INTERRES
   131   66   68 2    
   132   67  132 1    
   133   67  133 1    
   134   69   70 1    
   135   69  134 1    
   136   69  135 1    
   137   70   71 1    
   138   71  136 1    
   139   71  137 1    
@<TRIPOS>SUBSTRUCTURE
     1 UNK         1 GROUP             0       ****    0 ROOT    
