@<TRIPOS>MOLECULE
3R136
137   139    1
SMALL
USER_CHARGES


@<TRIPOS>ATOM
      1 CA         27.0460   27.3332    3.1069 C.3       0 UNK        -0.1979 
      2 C          27.1893   25.8330    3.3137 C.2       0 UNK         0.4864 
      3 O          26.9580   25.3450    4.4203 O.2       0 UNK        -0.5359 
      4 N          27.5746   25.1067    2.2599 N.am      1 UNK        -0.4318 
      5 CA         27.7391   23.6529    2.2415 C.3       1 UNK         0.0824 
      6 C6         29.2158   23.2432    1.9835 C.3       12 UNK        -0.0944 
      7 S7         30.0970   22.8404    3.5286 S.3       12 UNK        -0.2672 
      8 C8         30.7009   24.4633    4.0889 C.3       12 UNK         0.0333 
      9 C9         31.8264   25.0027    3.2197 C.ar      12 UNK        -0.0807 
     10 C10        33.1164   24.4779    3.3409 C.ar      12 UNK        -0.0894 
     11 C11        34.1673   24.9964    2.5794 C.ar      12 UNK        -0.0804 
     12 C12        33.9196   26.0483    1.6924 C.ar      12 UNK        -0.0824 
     13 C13        32.6383   26.5932    1.5749 C.ar      12 UNK        -0.0762 
     14 C14        31.5914   26.0583    2.3335 C.ar      12 UNK        -0.0782 
     15 C15        32.4132   27.8093    0.6894 C.3       12 UNK         0.0230 
     16 S16        32.0321   27.3504   -1.0300 S.3       12 UNK        -0.2608 
     17 C17        30.2474   26.9880   -0.9195 C.3       12 UNK        -0.0989 
     18 CA         29.3562   27.9880   -1.7136 C.3       5 UNK         0.0716 
     19 N          28.0927   27.3868   -2.1587 N.am      5 UNK        -0.4135 
     20 C          27.2007   26.7417   -1.3945 C.2       4 UNK         0.5031 
     21 O          27.3462   26.5351   -0.1855 O.2       4 UNK        -0.5229 
     22 CA         25.9448   26.2282   -2.1163 C.3       4 UNK         0.0329 
     23 CB         26.2975   25.1768   -3.1851 C.3       4 UNK        -0.2001 
     24 N          25.0461   25.6156   -1.1428 N.am      4 UNK        -0.4303 
     25 C          23.7249   25.8065   -1.0555 C.2       3 UNK         0.5044 
     26 O          23.0888   26.5191   -1.8344 O.2       3 UNK        -0.5152 
     27 CA         22.9898   25.1029    0.1081 C.3       3 UNK         0.0319 
     28 CB         21.5081   24.8085   -0.2120 C.3       3 UNK        -0.2001 
     29 N          23.6719   23.8989    0.6053 N.am      3 UNK        -0.4354 
     30 C          23.9259   22.7655   -0.0701 C.2       2 UNK         0.4964 
     31 O          23.5414   22.5486   -1.2205 O.2       2 UNK        -0.5047 
     32 CA         24.7779   21.7103    0.6708 C.3       2 UNK         0.0288 
     33 CB         25.3928   20.6632   -0.2835 C.3       2 UNK        -0.2113 
     34 N          25.8205   22.2980    1.5294 N.am      2 UNK        -0.4145 
     35 C          26.8023   23.1293    1.1436 C.2       1 UNK         0.5006 
     36 O          26.9649   23.5100   -0.0166 O.2       1 UNK        -0.5103 
     37 C          29.1287   29.3276   -0.9717 C.2       5 UNK         0.5055 
     38 O          27.9978   29.6789   -0.6244 O.2       5 UNK        -0.5220 
     39 N          30.2194   30.0770   -0.7711 N.am      6 UNK        -0.4450 
     40 CA         30.2520   31.3446   -0.0437 C.3       6 UNK         0.0367 
     41 CB         31.5459   32.0977   -0.4031 C.3       6 UNK        -0.1929 
     42 C          30.1503   31.0931    1.4683 C.2       6 UNK         0.5070 
     43 O          31.1705   30.8541    2.1145 O.2       6 UNK        -0.5237 
     44 N          28.9250   31.1429    2.0072 N.am      7 UNK        -0.4739 
     45 CA         28.5995   30.8646    3.4134 C.3       7 UNK         0.0276 
     46 CB         27.0813   30.9926    3.6146 C.3       7 UNK        -0.1927 
     47 C          29.3518   31.7351    4.4387 C.2       7 UNK         0.5013 
     48 O          29.6003   31.2783    5.5543 O.2       7 UNK        -0.5193 
     49 N          29.7290   32.9548    4.0328 N.am      8 UNK        -0.4253 
     50 CA         30.5452   33.8880    4.8125 C.3       8 UNK         0.0242 
     51 CB         30.4500   35.2829    4.1716 C.3       8 UNK        -0.2000 
     52 C          32.0215   33.4650    4.9578 C.2       8 UNK         0.4948 
     53 O          32.7084   34.0135    5.8207 O.2       8 UNK        -0.5275 
     54 N          32.4919   32.5248    4.1265 N.am      9 UNK        -0.4246 
     55 CA         33.8684   32.0296    4.1008 C.3       9 UNK         0.0261 
     56 CB         34.6138   32.6752    2.9168 C.3       9 UNK        -0.1959 
     57 C          33.8766   30.4938    4.0415 C.2       9 UNK         0.5033 
     58 O          34.6876   29.9094    3.3199 O.2       9 UNK        -0.5390 
     59 N          32.9715   29.8579    4.7992 N.am      10 UNK        -0.4215 
     60 CA         32.7112   28.4145    4.7992 C.3       10 UNK         0.0240 
     61 CB         31.2980   28.1656    5.3589 C.3       10 UNK        -0.1982 
     62 C          33.7909   27.5625    5.5021 C.2       10 UNK         0.4970 
     63 O          33.4563   26.7244    6.3413 O.2       10 UNK        -0.4916 
     64 N          35.0629   27.7990    5.1573 N.am      11 UNK        -0.4279 
     65 CA         36.2616   27.1127    5.6734 C.3       11 UNK         0.1003 
     66 C          36.4804   27.2304    7.2155 C.2       11 UNK         0.5709 
     67 N          35.9098   28.2240    7.8870 N.am      11 UNK        -0.7358 
     68 O          37.2081   26.4398    7.8123 O.2       11 UNK        -0.4999 
     69 C69        36.3891   25.6564    5.1346 C.3       12 UNK        -0.0954 
     70 S70        36.7664   25.6269    3.3492 S.3       12 UNK        -0.2268 
     71 C71        35.5686   24.4167    2.7035 C.3       12 UNK         0.0203 
     72 H72        27.6181   27.6804    2.2461 H         1 UNK         0.0888 
     73 H73        25.9996   27.5925    2.9496 H         1 UNK         0.0888 
     74 H74        27.4025   27.8684    3.9863 H         1 UNK         0.0888 
     75 H75        27.6430   25.5578    1.3463 H         1 UNK         0.3017 
     76 H76        27.4071   23.2195    3.1874 H         1 UNK         0.0873 
     77 H77        29.7556   24.0086    1.4236 H         1 UNK         0.0745 
     78 H78        29.2755   22.3426    1.3685 H         1 UNK         0.0745 
     79 H79        31.0619   24.3644    5.1137 H         1 UNK         0.0705 
     80 H80        29.8709   25.1675    4.1330 H         1 UNK         0.0705 
     81 H81        33.2996   23.6682    4.0341 H         1 UNK         0.1334 
     82 H82        34.7339   26.4611    1.1124 H         1 UNK         0.1417 
     83 H83        30.6010   26.4856    2.2652 H         1 UNK         0.1562 
     84 H84        33.3056   28.4377    0.6976 H         1 UNK         0.0748 
     85 H85        31.6143   28.4266    1.0998 H         1 UNK         0.0748 
     86 H86        29.9282   26.9260    0.1206 H         1 UNK         0.0940 
     87 H87        30.1185   25.9806   -1.3191 H         1 UNK         0.0940 
     88 H88        29.8755   28.2386   -2.6403 H         1 UNK         0.0703 
     89 H89        27.8675   27.5335   -3.1320 H         1 UNK         0.3081 
     90 H90        25.4629   27.0852   -2.5912 H         1 UNK         0.0719 
     91 H91        26.9251   25.5964   -3.9718 H         1 UNK         0.0809 
     92 H92        26.8342   24.3314   -2.7516 H         1 UNK         0.0809 
     93 H93        25.3995   24.7872   -3.6652 H         1 UNK         0.0809 
     94 H94        25.5152   25.0304   -0.4604 H         1 UNK         0.2990 
     95 H95        23.0063   25.8146    0.9347 H         1 UNK         0.0690 
     96 H96        21.0088   24.3246    0.6273 H         1 UNK         0.0788 
     97 H97        21.4020   24.1627   -1.0841 H         1 UNK         0.0788 
     98 H98        20.9625   25.7289   -0.4234 H         1 UNK         0.0788 
     99 H99        24.0319   23.9662    1.5471 H         1 UNK         0.2993 
    100 H100       24.0895   21.1851    1.3348 H         1 UNK         0.0949 
    101 H101       26.0511   21.1251   -1.0203 H         1 UNK         0.0767 
    102 H102       25.9717   19.9192    0.2637 H         1 UNK         0.0767 
    103 H103       24.6165   20.1277   -0.8316 H         1 UNK         0.0767 
    104 H104       25.7610   22.0539    2.5090 H         1 UNK         0.3013 
    105 H105       31.1120   29.7022   -1.0626 H         1 UNK         0.3121 
    106 H106       29.4053   31.9596   -0.3567 H         1 UNK         0.0774 
    107 H107       32.4371   31.5191   -0.1554 H         1 UNK         0.0815 
    108 H108       31.5849   32.3333   -1.4667 H         1 UNK         0.0815 
    109 H109       31.6110   33.0415    0.1400 H         1 UNK         0.0815 
    110 H110       28.1418   31.2942    1.3853 H         1 UNK         0.2987 
    111 H111       28.8832   29.8292    3.6051 H         1 UNK         0.0949 
    112 H112       26.5329   30.3214    2.9536 H         1 UNK         0.0806 
    113 H113       26.8001   30.7383    4.6377 H         1 UNK         0.0806 
    114 H114       26.7335   32.0087    3.4238 H         1 UNK         0.0806 
    115 H115       29.4768   33.2392    3.0975 H         1 UNK         0.3010 
    116 H116       30.1256   33.9442    5.8194 H         1 UNK         0.0829 
    117 H117       30.8491   35.2891    3.1564 H         1 UNK         0.0813 
    118 H118       31.0152   36.0172    4.7476 H         1 UNK         0.0813 
    119 H119       29.4182   35.6326    4.1308 H         1 UNK         0.0813 
    120 H120       31.8633   32.0796    3.4609 H         1 UNK         0.3038 
    121 H121       34.3876   32.3010    5.0222 H         1 UNK         0.0769 
    122 H122       34.6065   33.7627    2.9895 H         1 UNK         0.0811 
    123 H123       34.1619   32.3990    1.9630 H         1 UNK         0.0811 
    124 H124       35.6578   32.3603    2.8895 H         1 UNK         0.0811 
    125 H125       32.3576   30.4208    5.3713 H         1 UNK         0.3204 
    126 H126       32.7100   28.0981    3.7590 H         1 UNK         0.0748 
    127 H127       31.2035   28.5170    6.3869 H         1 UNK         0.0771 
    128 H128       30.5439   28.6721    4.7593 H         1 UNK         0.0771 
    129 H129       31.0491   27.1045    5.3520 H         1 UNK         0.0771 
    130 H130       35.2225   28.5095    4.4474 H         1 UNK         0.2980 
    131 H131       37.1015   27.6756    5.2650 H         1 UNK         0.0545 
    132 H132       36.0654   28.3014    8.8796 H         1 UNK         0.3459 
    133 H133       35.3158   28.8852    7.4142 H         1 UNK         0.3459 
    134 H134       35.4830   25.0856    5.3427 H         1 UNK         0.0616 
    135 H135       37.2032   25.1210    5.6253 H         1 UNK         0.0616 
    136 H136       35.5757   23.5279    3.3364 H         1 UNK         0.0634 
    137 H137       35.9008   24.0919    1.7166 H         1 UNK         0.0634 
@<TRIPOS>BOND
     1    1    2 1    
     2    1   72 1    
     3    1   73 1    
     4    1   74 1    
     5    2    3 2    
     6    2    4 am   BACKBONE|DICT|INTERRES
     7    4    5 1    
     8    4   75 1    
     9    5    6 1    
    10    5   35 1    
    11    5   76 1    
    12    6    7 1    
    13    6   77 1    
    14    6   78 1    
    15    7    8 1    
    16    8    9 1    
    17    8   79 1    
    18    8   80 1    
    19    9   10 ar   
    20    9   14 ar   
    21   10   11 ar   
    22   10   81 1    
    23   11   12 ar   
    24   11   71 1    
    25   12   13 ar   
    26   12   82 1    
    27   13   14 ar   
    28   13   15 1    
    29   14   83 1    
    30   15   16 1    
    31   15   84 1    
    32   15   85 1    
    33   16   17 1    
    34   17   18 1    
    35   17   86 1    
    36   17   87 1    
    37   18   19 1    
    38   18   37 1    
    39   18   88 1    
    40   19   20 am   BACKBONE|DICT|INTERRES
    41   19   89 1    
    42   20   21 2    
    43   20   22 1    
    44   22   23 1    
    45   22   24 1    
    46   22   90 1    
    47   23   91 1    
    48   23   92 1    
    49   23   93 1    
    50   24   25 am   BACKBONE|DICT|INTERRES
    51   24   94 1    
    52   25   26 2    
    53   25   27 1    
    54   27   28 1    
    55   27   29 1    
    56   27   95 1    
    57   28   96 1    
    58   28   97 1    
    59   28   98 1    
    60   29   30 am   BACKBONE|DICT|INTERRES
    61   29   99 1    
    62   30   31 2    
    63   30   32 1    
    64   32   33 1    
    65   32   34 1    
    66   32  100 1    
    67   33  101 1    
    68   33  102 1    
    69   33  103 1    
    70   34   35 am   BACKBONE|DICT|INTERRES
    71   34  104 1    
    72   35   36 2    
    73   37   38 2    
    74   37   39 am   BACKBONE|DICT|INTERRES
    75   39   40 1    
    76   39  105 1    
    77   40   41 1    
    78   40   42 1    
    79   40  106 1    
    80   41  107 1    
    81   41  108 1    
    82   41  109 1    
    83   42   43 2    
    84   42   44 am   BACKBONE|DICT|INTERRES
    85   44   45 1    
    86   44  110 1    
    87   45   46 1    
    88   45   47 1    
    89   45  111 1    
    90   46  112 1    
    91   46  113 1    
    92   46  114 1    
    93   47   48 2    
    94   47   49 am   BACKBONE|DICT|INTERRES
    95   49   50 1    
    96   49  115 1    
    97   50   51 1    
    98   50   52 1    
    99   50  116 1    
   100   51  117 1    
   101   51  118 1    
   102   51  119 1    
   103   52   53 2    
   104   52   54 am   BACKBONE|DICT|INTERRES
   105   54   55 1    
   106   54  120 1    
   107   55   56 1    
   108   55   57 1    
   109   55  121 1    
   110   56  122 1    
   111   56  123 1    
   112   56  124 1    
   113   57   58 2    
   114   57   59 am   BACKBONE|DICT|INTERRES
   115   59   60 1    
   116   59  125 1    
   117   60   61 1    
   118   60   62 1    
   119   60  126 1    
   120   61  127 1    
   121   61  128 1    
   122   61  129 1    
   123   62   63 2    
   124   62   64 am   BACKBONE|DICT|INTERRES
   125   64   65 1    
   126   64  130 1    
   127   65   66 1    
   128   65   69 1    
   129   65  131 1    
   130   66   67 am   BACKBONE|DICT|INTERRES
   131   66   68 2    
   132   67  132 1    
   133   67  133 1    
   134   69   70 1    
   135   69  134 1    
   136   69  135 1    
   137   70   71 1    
   138   71  136 1    
   139   71  137 1    
@<TRIPOS>SUBSTRUCTURE
     1 UNK         1 GROUP             0       ****    0 ROOT    
