@<TRIPOS>MOLECULE
3R136
137   139    1
SMALL
USER_CHARGES


@<TRIPOS>ATOM
      1 CA         28.9452   25.0046    5.6697 C.3       0 UNK        -0.1979 
      2 C          28.4036   23.8313    4.8645 C.2       0 UNK         0.4864 
      3 O          27.3474   23.2938    5.1983 O.2       0 UNK        -0.5359 
      4 N          29.1245   23.4362    3.8061 N.am      1 UNK        -0.4318 
      5 CA         28.7995   22.3404    2.8824 C.3       1 UNK         0.0824 
      6 C6         29.9205   22.1239    1.8333 C.3       12 UNK        -0.0944 
      7 S7         31.5571   21.8557    2.5870 S.3       12 UNK        -0.2672 
      8 C8         32.6361   21.9468    1.1224 C.3       12 UNK         0.0333 
      9 C9         32.9074   23.3800    0.6805 C.ar      12 UNK        -0.0807 
     10 C10        33.6826   24.2199    1.4848 C.ar      12 UNK        -0.0894 
     11 C11        33.9934   25.5245    1.0770 C.ar      12 UNK        -0.0804 
     12 C12        33.5217   25.9741   -0.1636 C.ar      12 UNK        -0.0824 
     13 C13        32.7600   25.1388   -0.9890 C.ar      12 UNK        -0.0762 
     14 C14        32.4433   23.8476   -0.5529 C.ar      12 UNK        -0.0782 
     15 C15        32.3527   25.5875   -2.3886 C.3       12 UNK         0.0230 
     16 S16        30.6849   26.3200   -2.4487 S.3       12 UNK        -0.2608 
     17 C17        31.0374   28.1190   -2.5240 C.3       12 UNK        -0.0989 
     18 CA         30.1823   28.9799   -1.5566 C.3       5 UNK         0.0716 
     19 N          28.7434   28.7457   -1.7319 N.am      5 UNK        -0.4135 
     20 C          27.7439   29.2828   -1.0178 C.2       4 UNK         0.5031 
     21 O          27.9093   30.0332   -0.0544 O.2       4 UNK        -0.5229 
     22 CA         26.3110   28.9096   -1.4220 C.3       4 UNK         0.0329 
     23 CB         26.2037   27.9724   -2.6461 C.3       4 UNK        -0.2001 
     24 N          25.6734   28.2916   -0.2675 N.am      4 UNK        -0.4303 
     25 C          24.3710   28.2995    0.0241 C.2       3 UNK         0.5044 
     26 O          23.5179   28.8642   -0.6632 O.2       3 UNK        -0.5152 
     27 CA         23.9620   27.5070    1.2843 C.3       3 UNK         0.0319 
     28 CB         22.4439   27.5426    1.5421 C.3       3 UNK        -0.2001 
     29 N          24.4000   26.1083    1.2174 N.am      3 UNK        -0.4354 
     30 C          25.6527   25.6684    1.3945 C.2       2 UNK         0.4964 
     31 O          26.6104   26.3983    1.6756 O.2       2 UNK        -0.5047 
     32 CA         25.8848   24.1769    1.1419 C.3       2 UNK         0.0288 
     33 CB         26.0252   23.9036   -0.3687 C.3       2 UNK        -0.2113 
     34 N          27.1012   23.7768    1.8374 N.am      2 UNK        -0.4145 
     35 C          27.4507   22.5244    2.1543 C.2       1 UNK         0.5006 
     36 O          26.7677   21.5340    1.8865 O.2       1 UNK        -0.5103 
     37 C          30.6673   28.8268   -0.1047 C.2       5 UNK         0.5055 
     38 O          31.3402   29.7197    0.4101 O.2       5 UNK        -0.5220 
     39 N          30.2997   27.7073    0.5286 N.am      6 UNK        -0.4450 
     40 CA         30.7238   27.3648    1.8805 C.3       6 UNK         0.0367 
     41 CB         30.3952   25.8986    2.1644 C.3       6 UNK        -0.1929 
     42 C          30.1103   28.2756    2.9499 C.2       6 UNK         0.5070 
     43 O          30.8085   28.6512    3.8900 O.2       6 UNK        -0.5237 
     44 N          28.8324   28.6360    2.7781 N.am      7 UNK        -0.4739 
     45 CA         28.1268   29.5838    3.6410 C.3       7 UNK         0.0276 
     46 CB         26.6208   29.5302    3.3490 C.3       7 UNK        -0.1927 
     47 C          28.6693   31.0143    3.4988 C.2       7 UNK         0.5013 
     48 O          28.8367   31.6944    4.5109 O.2       7 UNK        -0.5193 
     49 N          28.9718   31.4276    2.2589 N.am      8 UNK        -0.4253 
     50 CA         29.5957   32.7144    1.9392 C.3       8 UNK         0.0242 
     51 CB         29.5785   32.9341    0.4178 C.3       8 UNK        -0.2000 
     52 C          31.0251   32.8373    2.4950 C.2       8 UNK         0.4948 
     53 O          31.3732   33.8848    3.0411 O.2       8 UNK        -0.5275 
     54 N          31.8171   31.7635    2.3670 N.am      9 UNK        -0.4246 
     55 CA         33.1785   31.6631    2.8997 C.3       9 UNK         0.0261 
     56 CB         33.8915   30.4812    2.2219 C.3       9 UNK        -0.1959 
     57 C          33.2395   31.4959    4.4291 C.2       9 UNK         0.5033 
     58 O          34.2928   31.7636    5.0090 O.2       9 UNK        -0.5390 
     59 N          32.1409   31.0234    5.0391 N.am      10 UNK        -0.4215 
     60 CA         32.0181   30.5613    6.4280 C.3       10 UNK         0.0240 
     61 CB         32.2104   31.7203    7.4294 C.3       10 UNK        -0.1982 
     62 C          32.9399   29.3539    6.6936 C.2       10 UNK         0.4970 
     63 O          33.7012   29.3479    7.6632 O.2       10 UNK        -0.4916 
     64 N          32.8744   28.3759    5.7821 N.am      11 UNK        -0.4279 
     65 CA         33.6997   27.1622    5.7567 C.3       11 UNK         0.1003 
     66 C          33.4422   26.2160    6.9615 C.2       11 UNK         0.5709 
     67 N          34.4489   25.4622    7.3815 N.am      11 UNK        -0.7358 
     68 O          32.3335   26.1265    7.4865 O.2       11 UNK        -0.4999 
     69 C69        33.5441   26.4172    4.3990 C.3       12 UNK        -0.0954 
     70 S70        35.1464   25.9767    3.6539 S.3       12 UNK        -0.2268 
     71 C71        34.8893   26.4536    1.9042 C.3       12 UNK         0.0203 
     72 H72        29.9974   25.1959    5.4586 H         1 UNK         0.0888 
     73 H73        28.3810   25.9087    5.4414 H         1 UNK         0.0888 
     74 H74        28.8525   24.8049    6.7369 H         1 UNK         0.0888 
     75 H75        30.0128   23.8794    3.6251 H         1 UNK         0.3017 
     76 H76        28.7146   21.4335    3.4847 H         1 UNK         0.0873 
     77 H77        29.6952   21.2563    1.2096 H         1 UNK         0.0745 
     78 H78        29.9851   22.9778    1.1563 H         1 UNK         0.0745 
     79 H79        32.1996   21.3605    0.3123 H         1 UNK         0.0705 
     80 H80        33.5871   21.4691    1.3626 H         1 UNK         0.0705 
     81 H81        34.0538   23.8334    2.4229 H         1 UNK         0.1334 
     82 H82        33.7771   26.9685   -0.5037 H         1 UNK         0.1417 
     83 H83        31.8642   23.1949   -1.1923 H         1 UNK         0.1562 
     84 H84        32.3657   24.7258   -3.0578 H         1 UNK         0.0748 
     85 H85        33.0907   26.2788   -2.7973 H         1 UNK         0.0748 
     86 H86        32.0996   28.3044   -2.3525 H         1 UNK         0.0940 
     87 H87        30.8549   28.4438   -3.5496 H         1 UNK         0.0940 
     88 H88        30.3476   30.0264   -1.8210 H         1 UNK         0.0703 
     89 H89        28.4991   28.1168   -2.4827 H         1 UNK         0.3081 
     90 H90        25.8004   29.8467   -1.6535 H         1 UNK         0.0719 
     91 H91        26.6710   27.0036   -2.4635 H         1 UNK         0.0809 
     92 H92        25.1605   27.7855   -2.9020 H         1 UNK         0.0809 
     93 H93        26.6670   28.4140   -3.5294 H         1 UNK         0.0809 
     94 H94        26.2887   27.8019    0.3757 H         1 UNK         0.2990 
     95 H95        24.4483   27.9831    2.1362 H         1 UNK         0.0690 
     96 H96        22.0883   28.5691    1.6421 H         1 UNK         0.0788 
     97 H97        22.1859   27.0224    2.4648 H         1 UNK         0.0788 
     98 H98        21.8842   27.0808    0.7278 H         1 UNK         0.0788 
     99 H99        23.6935   25.4405    0.9426 H         1 UNK         0.2993 
    100 H100       25.0402   23.6159    1.5482 H         1 UNK         0.0949 
    101 H101       25.1327   24.2167   -0.9119 H         1 UNK         0.0767 
    102 H102       26.8731   24.4407   -0.7964 H         1 UNK         0.0767 
    103 H103       26.1670   22.8419   -0.5712 H         1 UNK         0.0767 
    104 H104       27.6782   24.5517    2.1361 H         1 UNK         0.3013 
    105 H105       29.7678   27.0191    0.0155 H         1 UNK         0.3121 
    106 H106       31.8064   27.4885    1.9110 H         1 UNK         0.0774 
    107 H107       30.8085   25.5980    3.1263 H         1 UNK         0.0815 
    108 H108       29.3191   25.7305    2.1852 H         1 UNK         0.0815 
    109 H109       30.8257   25.2449    1.4081 H         1 UNK         0.0815 
    110 H110       28.3289   28.2768    1.9793 H         1 UNK         0.2987 
    111 H111       28.2817   29.2756    4.6777 H         1 UNK         0.0949 
    112 H112       26.0749   30.2345    3.9782 H         1 UNK         0.0806 
    113 H113       26.3993   29.7785    2.3105 H         1 UNK         0.0806 
    114 H114       26.2226   28.5369    3.5550 H         1 UNK         0.0806 
    115 H115       28.7529   30.8163    1.4752 H         1 UNK         0.3010 
    116 H116       28.9928   33.4985    2.4023 H         1 UNK         0.0829 
    117 H117       30.0179   33.8977    0.1569 H         1 UNK         0.0813 
    118 H118       30.1421   32.1635   -0.1089 H         1 UNK         0.0813 
    119 H119       28.5601   32.9249    0.0287 H         1 UNK         0.0813 
    120 H120       31.4830   30.9701    1.8231 H         1 UNK         0.3038 
    121 H121       33.7149   32.5800    2.6464 H         1 UNK         0.0769 
    122 H122       34.9181   30.3826    2.5774 H         1 UNK         0.0811 
    123 H123       33.9334   30.6091    1.1401 H         1 UNK         0.0811 
    124 H124       33.3815   29.5397    2.4285 H         1 UNK         0.0811 
    125 H125       31.3528   30.7948    4.4459 H         1 UNK         0.3204 
    126 H126       30.9953   30.1974    6.5379 H         1 UNK         0.0748 
    127 H127       32.0011   31.3916    8.4480 H         1 UNK         0.0771 
    128 H128       33.2297   32.1071    7.4176 H         1 UNK         0.0771 
    129 H129       31.5351   32.5473    7.2098 H         1 UNK         0.0771 
    130 H130       32.1710   28.4554    5.0502 H         1 UNK         0.2980 
    131 H131       34.7272   27.5203    5.8492 H         1 UNK         0.0545 
    132 H132       34.3002   24.8289    8.1513 H         1 UNK         0.3459 
    133 H133       35.3518   25.5077    6.9351 H         1 UNK         0.3459 
    134 H134       32.9346   25.5153    4.4831 H         1 UNK         0.0616 
    135 H135       33.0217   27.0492    3.6858 H         1 UNK         0.0616 
    136 H136       34.4992   27.4711    1.8690 H         1 UNK         0.0634 
    137 H137       35.8677   26.4876    1.4235 H         1 UNK         0.0634 
@<TRIPOS>BOND
     1    1    2 1    
     2    1   72 1    
     3    1   73 1    
     4    1   74 1    
     5    2    3 2    
     6    2    4 am   BACKBONE|DICT|INTERRES
     7    4    5 1    
     8    4   75 1    
     9    5    6 1    
    10    5   35 1    
    11    5   76 1    
    12    6    7 1    
    13    6   77 1    
    14    6   78 1    
    15    7    8 1    
    16    8    9 1    
    17    8   79 1    
    18    8   80 1    
    19    9   10 ar   
    20    9   14 ar   
    21   10   11 ar   
    22   10   81 1    
    23   11   12 ar   
    24   11   71 1    
    25   12   13 ar   
    26   12   82 1    
    27   13   14 ar   
    28   13   15 1    
    29   14   83 1    
    30   15   16 1    
    31   15   84 1    
    32   15   85 1    
    33   16   17 1    
    34   17   18 1    
    35   17   86 1    
    36   17   87 1    
    37   18   19 1    
    38   18   37 1    
    39   18   88 1    
    40   19   20 am   BACKBONE|DICT|INTERRES
    41   19   89 1    
    42   20   21 2    
    43   20   22 1    
    44   22   23 1    
    45   22   24 1    
    46   22   90 1    
    47   23   91 1    
    48   23   92 1    
    49   23   93 1    
    50   24   25 am   BACKBONE|DICT|INTERRES
    51   24   94 1    
    52   25   26 2    
    53   25   27 1    
    54   27   28 1    
    55   27   29 1    
    56   27   95 1    
    57   28   96 1    
    58   28   97 1    
    59   28   98 1    
    60   29   30 am   BACKBONE|DICT|INTERRES
    61   29   99 1    
    62   30   31 2    
    63   30   32 1    
    64   32   33 1    
    65   32   34 1    
    66   32  100 1    
    67   33  101 1    
    68   33  102 1    
    69   33  103 1    
    70   34   35 am   BACKBONE|DICT|INTERRES
    71   34  104 1    
    72   35   36 2    
    73   37   38 2    
    74   37   39 am   BACKBONE|DICT|INTERRES
    75   39   40 1    
    76   39  105 1    
    77   40   41 1    
    78   40   42 1    
    79   40  106 1    
    80   41  107 1    
    81   41  108 1    
    82   41  109 1    
    83   42   43 2    
    84   42   44 am   BACKBONE|DICT|INTERRES
    85   44   45 1    
    86   44  110 1    
    87   45   46 1    
    88   45   47 1    
    89   45  111 1    
    90   46  112 1    
    91   46  113 1    
    92   46  114 1    
    93   47   48 2    
    94   47   49 am   BACKBONE|DICT|INTERRES
    95   49   50 1    
    96   49  115 1    
    97   50   51 1    
    98   50   52 1    
    99   50  116 1    
   100   51  117 1    
   101   51  118 1    
   102   51  119 1    
   103   52   53 2    
   104   52   54 am   BACKBONE|DICT|INTERRES
   105   54   55 1    
   106   54  120 1    
   107   55   56 1    
   108   55   57 1    
   109   55  121 1    
   110   56  122 1    
   111   56  123 1    
   112   56  124 1    
   113   57   58 2    
   114   57   59 am   BACKBONE|DICT|INTERRES
   115   59   60 1    
   116   59  125 1    
   117   60   61 1    
   118   60   62 1    
   119   60  126 1    
   120   61  127 1    
   121   61  128 1    
   122   61  129 1    
   123   62   63 2    
   124   62   64 am   BACKBONE|DICT|INTERRES
   125   64   65 1    
   126   64  130 1    
   127   65   66 1    
   128   65   69 1    
   129   65  131 1    
   130   66   67 am   BACKBONE|DICT|INTERRES
   131   66   68 2    
   132   67  132 1    
   133   67  133 1    
   134   69   70 1    
   135   69  134 1    
   136   69  135 1    
   137   70   71 1    
   138   71  136 1    
   139   71  137 1    
@<TRIPOS>SUBSTRUCTURE
     1 UNK         1 GROUP             0       ****    0 ROOT    
