@<TRIPOS>MOLECULE
3R136
137   139    1
SMALL
USER_CHARGES


@<TRIPOS>ATOM
      1 CA         33.4657   23.2418   -3.9160 C.3       0 UNK        -0.1979 
      2 C          32.4855   23.8422   -2.9188 C.2       0 UNK         0.4864 
      3 O          32.4886   25.0572   -2.7155 O.2       0 UNK        -0.5359 
      4 N          31.6544   23.0000   -2.2906 N.am      1 UNK        -0.4318 
      5 CA         30.6044   23.4104   -1.3546 C.3       1 UNK         0.0824 
      6 C6         30.1654   22.2246   -0.4570 C.3       12 UNK        -0.0944 
      7 S7         29.2604   22.7760    1.0282 S.3       12 UNK        -0.2672 
      8 C8         30.5951   22.8667    2.2618 C.3       12 UNK         0.0333 
      9 C9         30.2159   23.7452    3.4482 C.ar      12 UNK        -0.0807 
     10 C10        31.0604   24.7877    3.8448 C.ar      12 UNK        -0.0894 
     11 C11        30.7419   25.5817    4.9515 C.ar      12 UNK        -0.0804 
     12 C12        29.5580   25.3380    5.6505 C.ar      12 UNK        -0.0824 
     13 C13        28.6851   24.3253    5.2435 C.ar      12 UNK        -0.0762 
     14 C14        29.0299   23.5175    4.1565 C.ar      12 UNK        -0.0782 
     15 C15        27.3601   24.1223    5.9658 C.3       12 UNK         0.0230 
     16 S16        25.9677   24.8924    5.0703 S.3       12 UNK        -0.2608 
     17 C17        26.4713   26.6476    5.0130 C.3       12 UNK        -0.0989 
     18 CA         26.9216   27.0617    3.5809 C.3       5 UNK         0.0716 
     19 N          25.8130   27.1142    2.6128 N.am      5 UNK        -0.4135 
     20 C          24.7539   27.9428    2.6566 C.2       4 UNK         0.5031 
     21 O          24.5611   28.7551    3.5620 O.2       4 UNK        -0.5229 
     22 CA         23.7538   27.9147    1.4820 C.3       4 UNK         0.0329 
     23 CB         23.8475   29.2190    0.6706 C.3       4 UNK        -0.2001 
     24 N          23.9369   26.7852    0.5706 N.am      4 UNK        -0.4303 
     25 C          23.6140   25.5137    0.8406 C.2       3 UNK         0.5044 
     26 O          23.0263   25.1593    1.8627 O.2       3 UNK        -0.5152 
     27 CA         24.0375   24.4521   -0.1936 C.3       3 UNK         0.0319 
     28 CB         22.8311   24.0244   -1.0455 C.3       3 UNK        -0.2001 
     29 N          25.1375   24.8506   -1.0857 N.am      3 UNK        -0.4354 
     30 C          26.3715   25.1963   -0.6931 C.2       2 UNK         0.4964 
     31 O          26.7090   25.3320    0.4861 O.2       2 UNK        -0.5047 
     32 CA         27.3940   25.4829   -1.7959 C.3       2 UNK         0.0288 
     33 CB         27.5870   26.9986   -1.9765 C.3       2 UNK        -0.2113 
     34 N          28.6532   24.8827   -1.3749 N.am      2 UNK        -0.4145 
     35 C          29.4101   24.0519   -2.0990 C.2       1 UNK         0.5006 
     36 O          29.1809   23.7606   -3.2768 O.2       1 UNK        -0.5103 
     37 C          27.7875   28.3459    3.5462 C.2       5 UNK         0.5055 
     38 O          28.4310   28.6907    4.5383 O.2       5 UNK        -0.5220 
     39 N          27.8018   29.0230    2.3885 N.am      6 UNK        -0.4450 
     40 CA         28.5287   30.2697    2.1379 C.3       6 UNK         0.0367 
     41 CB         27.6569   31.1703    1.2463 C.3       6 UNK        -0.1929 
     42 C          29.9053   30.0428    1.4878 C.2       6 UNK         0.5070 
     43 O          30.6361   31.0149    1.2882 O.2       6 UNK        -0.5237 
     44 N          30.2416   28.7866    1.1613 N.am      7 UNK        -0.4739 
     45 CA         31.4896   28.3785    0.5084 C.3       7 UNK         0.0276 
     46 CB         31.4698   26.8573    0.3043 C.3       7 UNK        -0.1927 
     47 C          32.7443   28.8018    1.2910 C.2       7 UNK         0.5013 
     48 O          32.7452   28.7277    2.5210 O.2       7 UNK        -0.5193 
     49 N          33.7754   29.2525    0.5609 N.am      8 UNK        -0.4253 
     50 CA         35.0448   29.7881    1.0752 C.3       8 UNK         0.0242 
     51 CB         35.8929   28.6605    1.7031 C.3       8 UNK        -0.2000 
     52 C          34.8481   30.9907    2.0230 C.2       8 UNK         0.4948 
     53 O          35.5044   31.0649    3.0630 O.2       8 UNK        -0.5275 
     54 N          33.9184   31.8889    1.6556 N.am      9 UNK        -0.4246 
     55 CA         33.4543   33.0502    2.4291 C.3       9 UNK         0.0261 
     56 CB         34.5652   34.1168    2.5406 C.3       9 UNK        -0.1959 
     57 C          32.8706   32.6371    3.7954 C.2       9 UNK         0.5033 
     58 O          33.2314   33.2121    4.8242 O.2       9 UNK        -0.5390 
     59 N          31.9962   31.6210    3.7607 N.am      10 UNK        -0.4215 
     60 CA         31.4025   30.9062    4.8955 C.3       10 UNK         0.0240 
     61 CB         30.4169   31.8124    5.6631 C.3       10 UNK        -0.1982 
     62 C          32.4718   30.2585    5.7966 C.2       10 UNK         0.4970 
     63 O          32.4509   30.4513    7.0140 O.2       10 UNK        -0.4916 
     64 N          33.3795   29.4974    5.1682 N.am      11 UNK        -0.4279 
     65 CA         34.5024   28.7815    5.7938 C.3       11 UNK         0.1003 
     66 C          35.4940   29.7347    6.5252 C.2       11 UNK         0.5709 
     67 N          35.9512   30.7914    5.8665 N.am      11 UNK        -0.7358 
     68 O          35.8620   29.5239    7.6794 O.2       11 UNK        -0.4999 
     69 C69        34.0290   27.5770    6.6600 C.3       12 UNK        -0.0954 
     70 S70        33.3613   26.1974    5.6699 S.3       12 UNK        -0.2268 
     71 C71        31.6451   26.7312    5.3759 C.3       12 UNK         0.0203 
     72 H72        34.4893   23.4691   -3.6193 H         1 UNK         0.0888 
     73 H73        33.3654   22.1587   -3.9854 H         1 UNK         0.0888 
     74 H74        33.2963   23.6621   -4.9070 H         1 UNK         0.0888 
     75 H75        31.6747   22.0180   -2.5255 H         1 UNK         0.3017 
     76 H76        31.0427   24.1735   -0.7086 H         1 UNK         0.0873 
     77 H77        31.0355   21.6514   -0.1318 H         1 UNK         0.0745 
     78 H78        29.5393   21.5236   -1.0126 H         1 UNK         0.0745 
     79 H79        31.4975   23.2486    1.7814 H         1 UNK         0.0705 
     80 H80        30.8293   21.8617    2.6150 H         1 UNK         0.0705 
     81 H81        31.9752   24.9802    3.3009 H         1 UNK         0.1334 
     82 H82        29.3009   25.9591    6.4975 H         1 UNK         0.1417 
     83 H83        28.3613   22.7263    3.8450 H         1 UNK         0.1562 
     84 H84        27.4065   24.5288    6.9774 H         1 UNK         0.0748 
     85 H85        27.1627   23.0551    6.0763 H         1 UNK         0.0748 
     86 H86        27.2580   26.8095    5.7485 H         1 UNK         0.0940 
     87 H87        25.6393   27.2612    5.3587 H         1 UNK         0.0940 
     88 H88        27.5913   26.2821    3.2128 H         1 UNK         0.0703 
     89 H89        25.9006   26.4671    1.8336 H         1 UNK         0.3081 
     90 H90        22.7521   27.8499    1.9122 H         1 UNK         0.0719 
     91 H91        24.8280   29.3405    0.2087 H         1 UNK         0.0809 
     92 H92        23.0971   29.2498   -0.1196 H         1 UNK         0.0809 
     93 H93        23.6781   30.0894    1.3064 H         1 UNK         0.0809 
     94 H94        24.4011   26.9768   -0.3049 H         1 UNK         0.2990 
     95 H95        24.3807   23.5827    0.3711 H         1 UNK         0.0690 
     96 H96        23.0839   23.1943   -1.7055 H         1 UNK         0.0788 
     97 H97        22.4611   24.8450   -1.6617 H         1 UNK         0.0788 
     98 H98        22.0047   23.6923   -0.4152 H         1 UNK         0.0788 
     99 H99        24.9456   24.7933   -2.0761 H         1 UNK         0.2993 
    100 H100       27.0492   25.0425   -2.7341 H         1 UNK         0.0949 
    101 H101       28.3311   27.2105   -2.7447 H         1 UNK         0.0767 
    102 H102       26.6573   27.4787   -2.2845 H         1 UNK         0.0767 
    103 H103       27.9165   27.4795   -1.0543 H         1 UNK         0.0767 
    104 H104       28.8329   24.9543   -0.3809 H         1 UNK         0.3013 
    105 H105       27.2485   28.6639    1.6247 H         1 UNK         0.3121 
    106 H106       28.6985   30.7913    3.0820 H         1 UNK         0.0774 
    107 H107       28.1367   32.1352    1.0765 H         1 UNK         0.0815 
    108 H108       27.4757   30.7207    0.2692 H         1 UNK         0.0815 
    109 H109       26.6901   31.3696    1.7093 H         1 UNK         0.0815 
    110 H110       29.6011   28.0488    1.4093 H         1 UNK         0.2987 
    111 H111       31.5130   28.8598   -0.4716 H         1 UNK         0.0949 
    112 H112       32.3889   26.5111   -0.1712 H         1 UNK         0.0806 
    113 H113       31.3683   26.3234    1.2496 H         1 UNK         0.0806 
    114 H114       30.6449   26.5654   -0.3434 H         1 UNK         0.0806 
    115 H115       33.6750   29.2701   -0.4451 H         1 UNK         0.3010 
    116 H116       35.5941   30.1715    0.2141 H         1 UNK         0.0829 
    117 H117       36.0616   27.8507    0.9935 H         1 UNK         0.0813 
    118 H118       36.8723   29.0296    2.0101 H         1 UNK         0.0813 
    119 H119       35.4141   28.2358    2.5852 H         1 UNK         0.0813 
    120 H120       33.4137   31.7131    0.7974 H         1 UNK         0.3038 
    121 H121       32.6298   33.4892    1.8647 H         1 UNK         0.0769 
    122 H122       34.1894   35.0215    3.0200 H         1 UNK         0.0811 
    123 H123       34.9409   34.4028    1.5584 H         1 UNK         0.0811 
    124 H124       35.4095   33.7634    3.1333 H         1 UNK         0.0811 
    125 H125       31.7520   31.2553    2.8435 H         1 UNK         0.3204 
    126 H126       30.8283   30.0814    4.4716 H         1 UNK         0.0748 
    127 H127       29.8895   31.2464    6.4320 H         1 UNK         0.0771 
    128 H128       30.9263   32.6397    6.1581 H         1 UNK         0.0771 
    129 H129       29.6631   32.2320    4.9973 H         1 UNK         0.0771 
    130 H130       33.2823   29.3612    4.1640 H         1 UNK         0.2980 
    131 H131       35.0860   28.3688    4.9709 H         1 UNK         0.0545 
    132 H132       36.5900   31.4217    6.3227 H         1 UNK         0.3459 
    133 H133       35.6901   30.9478    4.8943 H         1 UNK         0.3459 
    134 H134       34.8685   27.1599    7.2184 H         1 UNK         0.0616 
    135 H135       33.2992   27.8861    7.4095 H         1 UNK         0.0616 
    136 H136       31.6275   27.4856    4.5903 H         1 UNK         0.0634 
    137 H137       31.2600   27.2103    6.2773 H         1 UNK         0.0634 
@<TRIPOS>BOND
     1    1    2 1    
     2    1   72 1    
     3    1   73 1    
     4    1   74 1    
     5    2    3 2    
     6    2    4 am   BACKBONE|DICT|INTERRES
     7    4    5 1    
     8    4   75 1    
     9    5    6 1    
    10    5   35 1    
    11    5   76 1    
    12    6    7 1    
    13    6   77 1    
    14    6   78 1    
    15    7    8 1    
    16    8    9 1    
    17    8   79 1    
    18    8   80 1    
    19    9   10 ar   
    20    9   14 ar   
    21   10   11 ar   
    22   10   81 1    
    23   11   12 ar   
    24   11   71 1    
    25   12   13 ar   
    26   12   82 1    
    27   13   14 ar   
    28   13   15 1    
    29   14   83 1    
    30   15   16 1    
    31   15   84 1    
    32   15   85 1    
    33   16   17 1    
    34   17   18 1    
    35   17   86 1    
    36   17   87 1    
    37   18   19 1    
    38   18   37 1    
    39   18   88 1    
    40   19   20 am   BACKBONE|DICT|INTERRES
    41   19   89 1    
    42   20   21 2    
    43   20   22 1    
    44   22   23 1    
    45   22   24 1    
    46   22   90 1    
    47   23   91 1    
    48   23   92 1    
    49   23   93 1    
    50   24   25 am   BACKBONE|DICT|INTERRES
    51   24   94 1    
    52   25   26 2    
    53   25   27 1    
    54   27   28 1    
    55   27   29 1    
    56   27   95 1    
    57   28   96 1    
    58   28   97 1    
    59   28   98 1    
    60   29   30 am   BACKBONE|DICT|INTERRES
    61   29   99 1    
    62   30   31 2    
    63   30   32 1    
    64   32   33 1    
    65   32   34 1    
    66   32  100 1    
    67   33  101 1    
    68   33  102 1    
    69   33  103 1    
    70   34   35 am   BACKBONE|DICT|INTERRES
    71   34  104 1    
    72   35   36 2    
    73   37   38 2    
    74   37   39 am   BACKBONE|DICT|INTERRES
    75   39   40 1    
    76   39  105 1    
    77   40   41 1    
    78   40   42 1    
    79   40  106 1    
    80   41  107 1    
    81   41  108 1    
    82   41  109 1    
    83   42   43 2    
    84   42   44 am   BACKBONE|DICT|INTERRES
    85   44   45 1    
    86   44  110 1    
    87   45   46 1    
    88   45   47 1    
    89   45  111 1    
    90   46  112 1    
    91   46  113 1    
    92   46  114 1    
    93   47   48 2    
    94   47   49 am   BACKBONE|DICT|INTERRES
    95   49   50 1    
    96   49  115 1    
    97   50   51 1    
    98   50   52 1    
    99   50  116 1    
   100   51  117 1    
   101   51  118 1    
   102   51  119 1    
   103   52   53 2    
   104   52   54 am   BACKBONE|DICT|INTERRES
   105   54   55 1    
   106   54  120 1    
   107   55   56 1    
   108   55   57 1    
   109   55  121 1    
   110   56  122 1    
   111   56  123 1    
   112   56  124 1    
   113   57   58 2    
   114   57   59 am   BACKBONE|DICT|INTERRES
   115   59   60 1    
   116   59  125 1    
   117   60   61 1    
   118   60   62 1    
   119   60  126 1    
   120   61  127 1    
   121   61  128 1    
   122   61  129 1    
   123   62   63 2    
   124   62   64 am   BACKBONE|DICT|INTERRES
   125   64   65 1    
   126   64  130 1    
   127   65   66 1    
   128   65   69 1    
   129   65  131 1    
   130   66   67 am   BACKBONE|DICT|INTERRES
   131   66   68 2    
   132   67  132 1    
   133   67  133 1    
   134   69   70 1    
   135   69  134 1    
   136   69  135 1    
   137   70   71 1    
   138   71  136 1    
   139   71  137 1    
@<TRIPOS>SUBSTRUCTURE
     1 UNK         1 GROUP             0       ****    0 ROOT    
