@<TRIPOS>MOLECULE
3R136
137   139    1
SMALL
USER_CHARGES


@<TRIPOS>ATOM
      1 CA         29.6463   23.7288   -4.1098 C.3       0 UNK        -0.1979 
      2 C          29.3865   23.8919   -2.6207 C.2       0 UNK         0.4864 
      3 O          28.9972   24.9771   -2.1873 O.2       0 UNK        -0.5359 
      4 N          29.5829   22.8194   -1.8392 N.am      1 UNK        -0.4318 
      5 CA         29.4520   22.7622   -0.3741 C.3       1 UNK         0.0824 
      6 C6         29.7289   21.3396    0.1658 C.3       12 UNK        -0.0944 
      7 S7         31.4803   20.8789   -0.0548 S.3       12 UNK        -0.2672 
      8 C8         31.9438   20.2974    1.6093 C.3       12 UNK         0.0333 
      9 C9         31.9099   21.4035    2.6573 C.ar      12 UNK        -0.0807 
     10 C10        32.9310   22.3570    2.7112 C.ar      12 UNK        -0.0894 
     11 C11        32.9247   23.3455    3.7001 C.ar      12 UNK        -0.0804 
     12 C12        31.8878   23.3794    4.6367 C.ar      12 UNK        -0.0824 
     13 C13        30.8556   22.4364    4.5907 C.ar      12 UNK        -0.0762 
     14 C14        30.8777   21.4490    3.6004 C.ar      12 UNK        -0.0782 
     15 C15        29.7248   22.4497    5.6174 C.3       12 UNK         0.0230 
     16 S16        29.0403   24.1079    5.9610 S.3       12 UNK        -0.2608 
     17 C17        28.5329   24.6720    4.3011 C.3       12 UNK        -0.0989 
     18 CA         29.1103   26.0700    3.9563 C.3       5 UNK         0.0716 
     19 N          29.3086   26.2356    2.5133 N.am      5 UNK        -0.4135 
     20 C          30.0916   27.1828    1.9781 C.2       4 UNK         0.5031 
     21 O          30.7855   27.9479    2.6461 O.2       4 UNK        -0.5229 
     22 CA         30.1008   27.3298    0.4474 C.3       4 UNK         0.0329 
     23 CB         31.2609   26.5341   -0.1690 C.3       4 UNK        -0.2001 
     24 N          28.8440   26.9736   -0.2168 N.am      4 UNK        -0.4303 
     25 C          27.6783   27.6135   -0.0406 C.2       3 UNK         0.5044 
     26 O          27.4989   28.4847    0.8088 O.2       3 UNK        -0.5152 
     27 CA         26.5155   27.2110   -0.9568 C.3       3 UNK         0.0319 
     28 CB         26.7316   27.7498   -2.3805 C.3       3 UNK        -0.2001 
     29 N          26.3738   25.7583   -0.9973 N.am      3 UNK        -0.4354 
     30 C          25.5487   25.0572   -0.2073 C.2       2 UNK         0.4964 
     31 O          24.7333   25.5680    0.5612 O.2       2 UNK        -0.5047 
     32 CA         25.6627   23.5211   -0.2615 C.3       2 UNK         0.0288 
     33 CB         24.6665   22.9430   -1.2796 C.3       2 UNK        -0.2113 
     34 N          27.0103   23.0322   -0.5726 N.am      2 UNK        -0.4145 
     35 C          28.1055   23.2901    0.1583 C.2       1 UNK         0.5006 
     36 O          28.0935   23.9622    1.1895 O.2       1 UNK        -0.5103 
     37 C          28.2325   27.1960    4.5492 C.2       5 UNK         0.5055 
     38 O          28.4380   27.5854    5.7000 O.2       5 UNK        -0.5220 
     39 N          27.2567   27.6804    3.7670 N.am      6 UNK        -0.4450 
     40 CA         26.2800   28.6853    4.1863 C.3       6 UNK         0.0367 
     41 CB         24.9848   28.5016    3.3777 C.3       6 UNK        -0.1929 
     42 C          26.8107   30.1185    4.0372 C.2       6 UNK         0.5070 
     43 O          26.5592   30.9479    4.9121 O.2       6 UNK        -0.5237 
     44 N          27.5071   30.3956    2.9274 N.am      7 UNK        -0.4739 
     45 CA         28.0662   31.7055    2.5979 C.3       7 UNK         0.0276 
     46 CB         28.5068   31.7094    1.1241 C.3       7 UNK        -0.1927 
     47 C          29.2371   32.0701    3.5236 C.2       7 UNK         0.5013 
     48 O          30.2750   31.4092    3.4792 O.2       7 UNK        -0.5193 
     49 N          29.0740   33.1429    4.3104 N.am      8 UNK        -0.4253 
     50 CA         30.0779   33.6532    5.2549 C.3       8 UNK         0.0242 
     51 CB         29.4529   34.7771    6.0977 C.3       8 UNK        -0.2000 
     52 C          31.3839   34.1376    4.5950 C.2       8 UNK         0.4948 
     53 O          32.4205   34.1644    5.2586 O.2       8 UNK        -0.5275 
     54 N          31.3147   34.4990    3.3064 N.am      9 UNK        -0.4246 
     55 CA         32.4626   34.8548    2.4706 C.3       9 UNK         0.0261 
     56 CB         31.9655   35.6959    1.2823 C.3       9 UNK        -0.1959 
     57 C          33.2604   33.6340    1.9681 C.2       9 UNK         0.5033 
     58 O          34.3680   33.8241    1.4619 O.2       9 UNK        -0.5390 
     59 N          32.6961   32.4236    2.0845 N.am      10 UNK        -0.4215 
     60 CA         33.3114   31.1604    1.6795 C.3       10 UNK         0.0240 
     61 CB         32.2982   30.3727    0.8299 C.3       10 UNK        -0.1982 
     62 C          33.8109   30.3934    2.9196 C.2       10 UNK         0.4970 
     63 O          34.1108   31.0156    3.9418 O.2       10 UNK        -0.4916 
     64 N          33.9619   29.0686    2.7959 N.am      11 UNK        -0.4279 
     65 CA         34.5459   28.2021    3.8307 C.3       11 UNK         0.1003 
     66 C          33.6649   27.9722    5.0942 C.2       11 UNK         0.5709 
     67 N          32.3534   28.1632    5.0363 N.am      11 UNK        -0.7358 
     68 O          34.1904   27.6284    6.1505 O.2       11 UNK        -0.4999 
     69 C69        35.0953   26.8839    3.2247 C.3       12 UNK        -0.0954 
     70 S70        33.8060   25.7376    2.6240 S.3       12 UNK        -0.2268 
     71 C71        34.0530   24.3590    3.7821 C.3       12 UNK         0.0203 
     72 H72        30.4174   24.4279   -4.4321 H         1 UNK         0.0888 
     73 H73        29.9757   22.7204   -4.3592 H         1 UNK         0.0888 
     74 H74        28.7379   23.9396   -4.6733 H         1 UNK         0.0888 
     75 H75        29.9132   21.9648   -2.2651 H         1 UNK         0.3017 
     76 H76        30.2146   23.4255    0.0354 H         1 UNK         0.0873 
     77 H77        29.4704   21.2694    1.2229 H         1 UNK         0.0745 
     78 H78        29.1045   20.6025   -0.3424 H         1 UNK         0.0745 
     79 H79        32.9505   19.8793    1.5642 H         1 UNK         0.0705 
     80 H80        31.2884   19.4728    1.8943 H         1 UNK         0.0705 
     81 H81        33.7350   22.3246    1.9884 H         1 UNK         0.1334 
     82 H82        31.8856   24.1406    5.4050 H         1 UNK         0.1417 
     83 H83        30.0925   20.7057    3.5689 H         1 UNK         0.1562 
     84 H84        30.0974   22.0260    6.5508 H         1 UNK         0.0748 
     85 H85        28.9054   21.8061    5.2933 H         1 UNK         0.0748 
     86 H86        27.4442   24.6467    4.2204 H         1 UNK         0.0940 
     87 H87        28.8905   23.9385    3.5797 H         1 UNK         0.0940 
     88 H88        30.0980   26.1518    4.4166 H         1 UNK         0.0703 
     89 H89        28.8063   25.5933    1.9060 H         1 UNK         0.3081 
     90 H90        30.2711   28.3852    0.2301 H         1 UNK         0.0719 
     91 H91        31.2988   26.6556   -1.2517 H         1 UNK         0.0809 
     92 H92        32.2179   26.8733    0.2285 H         1 UNK         0.0809 
     93 H93        31.1815   25.4703    0.0483 H         1 UNK         0.0809 
     94 H94        28.9013   26.2573   -0.9399 H         1 UNK         0.2990 
     95 H95        25.6044   27.6670   -0.5630 H         1 UNK         0.0690 
     96 H96        26.8473   28.8345   -2.3728 H         1 UNK         0.0788 
     97 H97        25.8807   27.5193   -3.0218 H         1 UNK         0.0788 
     98 H98        27.6236   27.3291   -2.8465 H         1 UNK         0.0788 
     99 H99        27.0532   25.2582   -1.5603 H         1 UNK         0.2993 
    100 H100       25.3998   23.1449    0.7296 H         1 UNK         0.0949 
    101 H101       24.8982   23.2615   -2.2968 H         1 UNK         0.0767 
    102 H102       24.6650   21.8529   -1.2595 H         1 UNK         0.0767 
    103 H103       23.6493   23.2703   -1.0591 H         1 UNK         0.0767 
    104 H104       27.1154   22.4866   -1.4157 H         1 UNK         0.3013 
    105 H105       27.2060   27.3750    2.8046 H         1 UNK         0.3121 
    106 H106       26.0406   28.5272    5.2404 H         1 UNK         0.0774 
    107 H107       25.1502   28.6361    2.3079 H         1 UNK         0.0815 
    108 H108       24.2286   29.2256    3.6840 H         1 UNK         0.0815 
    109 H109       24.5613   27.5082    3.5268 H         1 UNK         0.0815 
    110 H110       27.6427   29.6578    2.2394 H         1 UNK         0.2987 
    111 H111       27.2758   32.4503    2.7142 H         1 UNK         0.0949 
    112 H112       29.2380   30.9268    0.9206 H         1 UNK         0.0806 
    113 H113       27.6585   31.5475    0.4587 H         1 UNK         0.0806 
    114 H114       28.9597   32.6626    0.8488 H         1 UNK         0.0806 
    115 H115       28.1846   33.6219    4.2974 H         1 UNK         0.3010 
    116 H116       30.3443   32.8315    5.9233 H         1 UNK         0.0829 
    117 H117       30.1654   35.1573    6.8314 H         1 UNK         0.0813 
    118 H118       29.1408   35.6201    5.4800 H         1 UNK         0.0813 
    119 H119       28.5821   34.4228    6.6500 H         1 UNK         0.0813 
    120 H120       30.4138   34.4673    2.8520 H         1 UNK         0.3038 
    121 H121       33.1462   35.4691    3.0607 H         1 UNK         0.0769 
    122 H122       31.2787   35.1340    0.6480 H         1 UNK         0.0811 
    123 H123       32.7986   36.0166    0.6550 H         1 UNK         0.0811 
    124 H124       31.4527   36.5969    1.6197 H         1 UNK         0.0811 
    125 H125       31.8256   32.3279    2.5991 H         1 UNK         0.3204 
    126 H126       34.1881   31.3505    1.0574 H         1 UNK         0.0748 
    127 H127       31.9550   30.9633   -0.0197 H         1 UNK         0.0771 
    128 H128       32.7277   29.4565    0.4247 H         1 UNK         0.0771 
    129 H129       31.4222   30.1042    1.4176 H         1 UNK         0.0771 
    130 H130       33.6459   28.6063    1.9574 H         1 UNK         0.2980 
    131 H131       35.4227   28.7371    4.2015 H         1 UNK         0.0545 
    132 H132       31.7977   28.0286    5.8642 H         1 UNK         0.3459 
    133 H133       31.8972   28.3478    4.1463 H         1 UNK         0.3459 
    134 H134       35.7553   27.1116    2.3864 H         1 UNK         0.0616 
    135 H135       35.7279   26.3774    3.9558 H         1 UNK         0.0616 
    136 H136       35.0062   23.8740    3.5664 H         1 UNK         0.0634 
    137 H137       34.1279   24.7498    4.7984 H         1 UNK         0.0634 
@<TRIPOS>BOND
     1    1    2 1    
     2    1   72 1    
     3    1   73 1    
     4    1   74 1    
     5    2    3 2    
     6    2    4 am   BACKBONE|DICT|INTERRES
     7    4    5 1    
     8    4   75 1    
     9    5    6 1    
    10    5   35 1    
    11    5   76 1    
    12    6    7 1    
    13    6   77 1    
    14    6   78 1    
    15    7    8 1    
    16    8    9 1    
    17    8   79 1    
    18    8   80 1    
    19    9   10 ar   
    20    9   14 ar   
    21   10   11 ar   
    22   10   81 1    
    23   11   12 ar   
    24   11   71 1    
    25   12   13 ar   
    26   12   82 1    
    27   13   14 ar   
    28   13   15 1    
    29   14   83 1    
    30   15   16 1    
    31   15   84 1    
    32   15   85 1    
    33   16   17 1    
    34   17   18 1    
    35   17   86 1    
    36   17   87 1    
    37   18   19 1    
    38   18   37 1    
    39   18   88 1    
    40   19   20 am   BACKBONE|DICT|INTERRES
    41   19   89 1    
    42   20   21 2    
    43   20   22 1    
    44   22   23 1    
    45   22   24 1    
    46   22   90 1    
    47   23   91 1    
    48   23   92 1    
    49   23   93 1    
    50   24   25 am   BACKBONE|DICT|INTERRES
    51   24   94 1    
    52   25   26 2    
    53   25   27 1    
    54   27   28 1    
    55   27   29 1    
    56   27   95 1    
    57   28   96 1    
    58   28   97 1    
    59   28   98 1    
    60   29   30 am   BACKBONE|DICT|INTERRES
    61   29   99 1    
    62   30   31 2    
    63   30   32 1    
    64   32   33 1    
    65   32   34 1    
    66   32  100 1    
    67   33  101 1    
    68   33  102 1    
    69   33  103 1    
    70   34   35 am   BACKBONE|DICT|INTERRES
    71   34  104 1    
    72   35   36 2    
    73   37   38 2    
    74   37   39 am   BACKBONE|DICT|INTERRES
    75   39   40 1    
    76   39  105 1    
    77   40   41 1    
    78   40   42 1    
    79   40  106 1    
    80   41  107 1    
    81   41  108 1    
    82   41  109 1    
    83   42   43 2    
    84   42   44 am   BACKBONE|DICT|INTERRES
    85   44   45 1    
    86   44  110 1    
    87   45   46 1    
    88   45   47 1    
    89   45  111 1    
    90   46  112 1    
    91   46  113 1    
    92   46  114 1    
    93   47   48 2    
    94   47   49 am   BACKBONE|DICT|INTERRES
    95   49   50 1    
    96   49  115 1    
    97   50   51 1    
    98   50   52 1    
    99   50  116 1    
   100   51  117 1    
   101   51  118 1    
   102   51  119 1    
   103   52   53 2    
   104   52   54 am   BACKBONE|DICT|INTERRES
   105   54   55 1    
   106   54  120 1    
   107   55   56 1    
   108   55   57 1    
   109   55  121 1    
   110   56  122 1    
   111   56  123 1    
   112   56  124 1    
   113   57   58 2    
   114   57   59 am   BACKBONE|DICT|INTERRES
   115   59   60 1    
   116   59  125 1    
   117   60   61 1    
   118   60   62 1    
   119   60  126 1    
   120   61  127 1    
   121   61  128 1    
   122   61  129 1    
   123   62   63 2    
   124   62   64 am   BACKBONE|DICT|INTERRES
   125   64   65 1    
   126   64  130 1    
   127   65   66 1    
   128   65   69 1    
   129   65  131 1    
   130   66   67 am   BACKBONE|DICT|INTERRES
   131   66   68 2    
   132   67  132 1    
   133   67  133 1    
   134   69   70 1    
   135   69  134 1    
   136   69  135 1    
   137   70   71 1    
   138   71  136 1    
   139   71  137 1    
@<TRIPOS>SUBSTRUCTURE
     1 UNK         1 GROUP             0       ****    0 ROOT    
