@<TRIPOS>MOLECULE
3R136
137   139    1
SMALL
USER_CHARGES


@<TRIPOS>ATOM
      1 CA         33.4318   20.8114    3.1581 C.3       0 UNK        -0.1979 
      2 C          32.6632   20.2408    1.9685 C.2       0 UNK         0.4864 
      3 O          32.7362   19.0354    1.7325 O.2       0 UNK        -0.5359 
      4 N          31.9268   21.0423    1.1908 N.am      1 UNK        -0.4318 
      5 CA         31.7185   22.4858    1.3032 C.3       1 UNK         0.0824 
      6 C6         30.8422   22.8953    2.5213 C.3       12 UNK        -0.0944 
      7 S7         29.1600   22.1769    2.5511 S.3       12 UNK        -0.2672 
      8 C8         28.6183   22.6078    4.2360 C.3       12 UNK         0.0333 
      9 C9         28.3012   24.0911    4.3851 C.ar      12 UNK        -0.0807 
     10 C10        29.3264   25.0053    4.6419 C.ar      12 UNK        -0.0894 
     11 C11        29.0483   26.3648    4.7965 C.ar      12 UNK        -0.0804 
     12 C12        27.7227   26.8068    4.7369 C.ar      12 UNK        -0.0824 
     13 C13        26.6846   25.9029    4.4947 C.ar      12 UNK        -0.0762 
     14 C14        26.9811   24.5481    4.3052 C.ar      12 UNK        -0.0782 
     15 C15        25.2391   26.3785    4.4841 C.3       12 UNK         0.0230 
     16 S16        24.6214   26.6703    2.7986 S.3       12 UNK        -0.2608 
     17 C17        25.2807   28.3296    2.4005 C.3       12 UNK        -0.0989 
     18 CA         26.4267   28.2991    1.3501 C.3       5 UNK         0.0716 
     19 N          26.1113   27.5409    0.1322 N.am      5 UNK        -0.4135 
     20 C          25.0720   27.6982   -0.7046 C.2       4 UNK         0.5031 
     21 O          24.1654   28.5176   -0.5440 O.2       4 UNK        -0.5229 
     22 CA         25.0212   26.7845   -1.9477 C.3       4 UNK         0.0329 
     23 CB         25.4676   27.5579   -3.1996 C.3       4 UNK        -0.2001 
     24 N          25.8392   25.5761   -1.8204 N.am      4 UNK        -0.4303 
     25 C          25.5637   24.5463   -1.0081 C.2       3 UNK         0.5044 
     26 O          24.5082   24.4345   -0.3840 O.2       3 UNK        -0.5152 
     27 CA         26.6472   23.4611   -0.8474 C.3       3 UNK         0.0319 
     28 CB         26.2464   22.1844   -1.6045 C.3       3 UNK        -0.2001 
     29 N          28.0053   23.8484   -1.2559 N.am      3 UNK        -0.4354 
     30 C          28.7241   24.8565   -0.7423 C.2       2 UNK         0.4964 
     31 O          28.2870   25.6678    0.0748 O.2       2 UNK        -0.5047 
     32 CA         30.1917   24.9508   -1.1912 C.3       2 UNK         0.0288 
     33 CB         30.6329   26.4106   -1.3974 C.3       2 UNK        -0.2113 
     34 N          31.0265   24.3143   -0.1723 N.am      2 UNK        -0.4145 
     35 C          31.1140   22.9858   -0.0198 C.2       1 UNK         0.5006 
     36 O          30.7001   22.1725   -0.8541 O.2       1 UNK        -0.5103 
     37 C          26.9502   29.7171    1.0238 C.2       5 UNK         0.5055 
     38 O          26.7329   30.2396   -0.0726 O.2       5 UNK        -0.5220 
     39 N          27.6528   30.3195    1.9879 N.am      6 UNK        -0.4450 
     40 CA         28.2751   31.6405    1.9110 C.3       6 UNK         0.0367 
     41 CB         29.4877   31.6113    0.9494 C.3       6 UNK        -0.1929 
     42 C          28.6692   32.0544    3.3388 C.2       6 UNK         0.5070 
     43 O          28.1315   31.5031    4.3035 O.2       6 UNK        -0.5237 
     44 N          29.6254   32.9845    3.4585 N.am      7 UNK        -0.4739 
     45 CA         30.3878   33.2107    4.6886 C.3       7 UNK         0.0276 
     46 CB         31.1495   34.5405    4.5746 C.3       7 UNK        -0.1927 
     47 C          31.3716   32.0475    4.8968 C.2       7 UNK         0.5013 
     48 O          31.9129   31.5439    3.9088 O.2       7 UNK        -0.5193 
     49 N          31.6013   31.6564    6.1587 N.am      8 UNK        -0.4253 
     50 CA         32.3540   30.4579    6.5640 C.3       8 UNK         0.0242 
     51 CB         32.4713   30.4205    8.0961 C.3       8 UNK        -0.2000 
     52 C          33.7398   30.2913    5.9156 C.2       8 UNK         0.4948 
     53 O          34.1124   29.1726    5.5606 O.2       8 UNK        -0.5275 
     54 N          34.4552   31.4093    5.7356 N.am      9 UNK        -0.4246 
     55 CA         35.7568   31.4680    5.0673 C.3       9 UNK         0.0261 
     56 CB         36.3866   32.8478    5.3201 C.3       9 UNK        -0.1959 
     57 C          35.7033   31.1723    3.5553 C.2       9 UNK         0.5033 
     58 O          36.7318   30.7938    2.9922 O.2       9 UNK        -0.5390 
     59 N          34.5363   31.3594    2.9232 N.am      10 UNK        -0.4215 
     60 CA         34.3122   31.1054    1.5023 C.3       10 UNK         0.0240 
     61 CB         33.3828   32.1832    0.9180 C.3       10 UNK        -0.1982 
     62 C          33.7450   29.6986    1.2709 C.2       10 UNK         0.4970 
     63 O          34.2690   28.9870    0.4127 O.2       10 UNK        -0.4916 
     64 N          32.6941   29.3187    2.0150 N.am      11 UNK        -0.4279 
     65 CA         32.0529   27.9972    1.8813 C.3       11 UNK         0.1003 
     66 C          32.8392   26.8111    2.4984 C.2       11 UNK         0.5709 
     67 N          33.7109   27.0231    3.4767 N.am      11 UNK        -0.7358 
     68 O          32.6609   25.6773    2.0577 O.2       11 UNK        -0.4999 
     69 C69        30.5556   27.9794    2.2931 C.3       12 UNK        -0.0954 
     70 S70        30.1998   28.7449    3.9073 S.3       12 UNK        -0.2268 
     71 C71        30.1845   27.3409    5.0632 C.3       12 UNK         0.0203 
     72 H72        34.3011   20.1909    3.3744 H         1 UNK         0.0888 
     73 H73        33.7950   21.8218    2.9797 H         1 UNK         0.0888 
     74 H74        32.7997   20.8179    4.0454 H         1 UNK         0.0888 
     75 H75        31.4443   20.6530    0.3891 H         1 UNK         0.3017 
     76 H76        32.6941   22.9676    1.3872 H         1 UNK         0.0873 
     77 H77        31.3473   22.6358    3.4509 H         1 UNK         0.0745 
     78 H78        30.7366   23.9793    2.5444 H         1 UNK         0.0745 
     79 H79        27.7362   22.0131    4.4780 H         1 UNK         0.0705 
     80 H80        29.3848   22.3132    4.9544 H         1 UNK         0.0705 
     81 H81        30.3465   24.6571    4.7234 H         1 UNK         0.1334 
     82 H82        27.5021   27.8548    4.8868 H         1 UNK         0.1417 
     83 H83        26.1797   23.8469    4.1157 H         1 UNK         0.1562 
     84 H84        25.1204   27.2799    5.0872 H         1 UNK         0.0748 
     85 H85        24.6096   25.6219    4.9550 H         1 UNK         0.0748 
     86 H86        25.6188   28.8095    3.3201 H         1 UNK         0.0940 
     87 H87        24.4504   28.9402    2.0419 H         1 UNK         0.0940 
     88 H88        27.2643   27.7611    1.7985 H         1 UNK         0.0703 
     89 H89        26.7994   26.8258   -0.0877 H         1 UNK         0.3081 
     90 H90        23.9820   26.4785   -2.0864 H         1 UNK         0.0719 
     91 H91        26.5046   27.8875   -3.1218 H         1 UNK         0.0809 
     92 H92        25.3723   26.9496   -4.0992 H         1 UNK         0.0809 
     93 H93        24.8545   28.4484   -3.3460 H         1 UNK         0.0809 
     94 H94        26.7236   25.5699   -2.3067 H         1 UNK         0.2990 
     95 H95        26.6939   23.2232    0.2176 H         1 UNK         0.0690 
     96 H96        26.9420   21.3691   -1.4040 H         1 UNK         0.0788 
     97 H97        26.2185   22.3475   -2.6826 H         1 UNK         0.0788 
     98 H98        25.2558   21.8428   -1.3004 H         1 UNK         0.0788 
     99 H99        28.4709   23.2145   -1.8909 H         1 UNK         0.2993 
    100 H100       30.3174   24.4249   -2.1405 H         1 UNK         0.0949 
    101 H101       31.7008   26.4812   -1.6050 H         1 UNK         0.0767 
    102 H102       30.1072   26.8541   -2.2438 H         1 UNK         0.0767 
    103 H103       30.4147   27.0303   -0.5291 H         1 UNK         0.0767 
    104 H104       31.3963   24.9100    0.5605 H         1 UNK         0.3013 
    105 H105       27.7692   29.8778    2.8927 H         1 UNK         0.3121 
    106 H106       27.5360   32.3566    1.5469 H         1 UNK         0.0774 
    107 H107       30.2895   30.9840    1.3401 H         1 UNK         0.0815 
    108 H108       29.8958   32.6091    0.7885 H         1 UNK         0.0815 
    109 H109       29.2194   31.2272   -0.0342 H         1 UNK         0.0815 
    110 H110       30.0288   33.3613    2.6137 H         1 UNK         0.2987 
    111 H111       29.6979   33.2613    5.5340 H         1 UNK         0.0949 
    112 H112       31.8652   34.5280    3.7511 H         1 UNK         0.0806 
    113 H113       30.4674   35.3754    4.4135 H         1 UNK         0.0806 
    114 H114       31.7076   34.7511    5.4879 H         1 UNK         0.0806 
    115 H115       31.1293   32.1514    6.9018 H         1 UNK         0.3010 
    116 H116       31.7610   29.5963    6.2565 H         1 UNK         0.0829 
    117 H117       31.4898   30.3922    8.5697 H         1 UNK         0.0813 
    118 H118       33.0113   29.5313    8.4252 H         1 UNK         0.0813 
    119 H119       33.0070   31.2886    8.4822 H         1 UNK         0.0813 
    120 H120       34.0608   32.2842    6.0494 H         1 UNK         0.3038 
    121 H121       36.3995   30.7109    5.5217 H         1 UNK         0.0769 
    122 H122       35.7790   33.6517    4.9025 H         1 UNK         0.0811 
    123 H123       37.3747   32.9155    4.8626 H         1 UNK         0.0811 
    124 H124       36.5125   33.0386    6.3860 H         1 UNK         0.0811 
    125 H125       33.7092   31.5980    3.4662 H         1 UNK         0.3204 
    126 H126       35.2607   31.1708    0.9645 H         1 UNK         0.0748 
    127 H127       32.4190   32.2133    1.4244 H         1 UNK         0.0771 
    128 H128       33.8304   33.1738    1.0000 H         1 UNK         0.0771 
    129 H129       33.1901   32.0012   -0.1401 H         1 UNK         0.0771 
    130 H130       32.3122   29.9461    2.7159 H         1 UNK         0.2980 
    131 H131       32.0548   27.7795    0.8131 H         1 UNK         0.0545 
    132 H132       34.2196   26.2396    3.8517 H         1 UNK         0.3459 
    133 H133       33.8243   27.9374    3.8974 H         1 UNK         0.3459 
    134 H134       29.9840   28.5373    1.5512 H         1 UNK         0.0616 
    135 H135       30.1435   26.9687    2.2618 H         1 UNK         0.0616 
    136 H136       30.0783   27.7276    6.0772 H         1 UNK         0.0634 
    137 H137       31.1535   26.8417    5.0247 H         1 UNK         0.0634 
@<TRIPOS>BOND
     1    1    2 1    
     2    1   72 1    
     3    1   73 1    
     4    1   74 1    
     5    2    3 2    
     6    2    4 am   BACKBONE|DICT|INTERRES
     7    4    5 1    
     8    4   75 1    
     9    5    6 1    
    10    5   35 1    
    11    5   76 1    
    12    6    7 1    
    13    6   77 1    
    14    6   78 1    
    15    7    8 1    
    16    8    9 1    
    17    8   79 1    
    18    8   80 1    
    19    9   10 ar   
    20    9   14 ar   
    21   10   11 ar   
    22   10   81 1    
    23   11   12 ar   
    24   11   71 1    
    25   12   13 ar   
    26   12   82 1    
    27   13   14 ar   
    28   13   15 1    
    29   14   83 1    
    30   15   16 1    
    31   15   84 1    
    32   15   85 1    
    33   16   17 1    
    34   17   18 1    
    35   17   86 1    
    36   17   87 1    
    37   18   19 1    
    38   18   37 1    
    39   18   88 1    
    40   19   20 am   BACKBONE|DICT|INTERRES
    41   19   89 1    
    42   20   21 2    
    43   20   22 1    
    44   22   23 1    
    45   22   24 1    
    46   22   90 1    
    47   23   91 1    
    48   23   92 1    
    49   23   93 1    
    50   24   25 am   BACKBONE|DICT|INTERRES
    51   24   94 1    
    52   25   26 2    
    53   25   27 1    
    54   27   28 1    
    55   27   29 1    
    56   27   95 1    
    57   28   96 1    
    58   28   97 1    
    59   28   98 1    
    60   29   30 am   BACKBONE|DICT|INTERRES
    61   29   99 1    
    62   30   31 2    
    63   30   32 1    
    64   32   33 1    
    65   32   34 1    
    66   32  100 1    
    67   33  101 1    
    68   33  102 1    
    69   33  103 1    
    70   34   35 am   BACKBONE|DICT|INTERRES
    71   34  104 1    
    72   35   36 2    
    73   37   38 2    
    74   37   39 am   BACKBONE|DICT|INTERRES
    75   39   40 1    
    76   39  105 1    
    77   40   41 1    
    78   40   42 1    
    79   40  106 1    
    80   41  107 1    
    81   41  108 1    
    82   41  109 1    
    83   42   43 2    
    84   42   44 am   BACKBONE|DICT|INTERRES
    85   44   45 1    
    86   44  110 1    
    87   45   46 1    
    88   45   47 1    
    89   45  111 1    
    90   46  112 1    
    91   46  113 1    
    92   46  114 1    
    93   47   48 2    
    94   47   49 am   BACKBONE|DICT|INTERRES
    95   49   50 1    
    96   49  115 1    
    97   50   51 1    
    98   50   52 1    
    99   50  116 1    
   100   51  117 1    
   101   51  118 1    
   102   51  119 1    
   103   52   53 2    
   104   52   54 am   BACKBONE|DICT|INTERRES
   105   54   55 1    
   106   54  120 1    
   107   55   56 1    
   108   55   57 1    
   109   55  121 1    
   110   56  122 1    
   111   56  123 1    
   112   56  124 1    
   113   57   58 2    
   114   57   59 am   BACKBONE|DICT|INTERRES
   115   59   60 1    
   116   59  125 1    
   117   60   61 1    
   118   60   62 1    
   119   60  126 1    
   120   61  127 1    
   121   61  128 1    
   122   61  129 1    
   123   62   63 2    
   124   62   64 am   BACKBONE|DICT|INTERRES
   125   64   65 1    
   126   64  130 1    
   127   65   66 1    
   128   65   69 1    
   129   65  131 1    
   130   66   67 am   BACKBONE|DICT|INTERRES
   131   66   68 2    
   132   67  132 1    
   133   67  133 1    
   134   69   70 1    
   135   69  134 1    
   136   69  135 1    
   137   70   71 1    
   138   71  136 1    
   139   71  137 1    
@<TRIPOS>SUBSTRUCTURE
     1 UNK         1 GROUP             0       ****    0 ROOT    
