@<TRIPOS>MOLECULE
3R136
137   139    1
SMALL
USER_CHARGES


@<TRIPOS>ATOM
      1 CA         27.7438   18.4517   -2.4976 C.3       0 UNK        -0.1979 
      2 C          27.7351   19.6904   -1.6144 C.2       0 UNK         0.4864 
      3 O          27.1347   19.6655   -0.5384 O.2       0 UNK        -0.5359 
      4 N          28.3855   20.7719   -2.0690 N.am      1 UNK        -0.4318 
      5 CA         28.5548   22.0801   -1.4139 C.3       1 UNK         0.0824 
      6 C6         29.2643   22.0179   -0.0366 C.3       12 UNK        -0.0944 
      7 S7         30.9637   21.3579   -0.1341 S.3       12 UNK        -0.2672 
      8 C8         31.9737   22.8807   -0.0254 C.3       12 UNK         0.0333 
      9 C9         32.1053   23.5130    1.3653 C.ar      12 UNK        -0.0807 
     10 C10        33.1310   24.4398    1.5835 C.ar      12 UNK        -0.0894 
     11 C11        33.2862   25.0608    2.8276 C.ar      12 UNK        -0.0804 
     12 C12        32.3842   24.7790    3.8576 C.ar      12 UNK        -0.0824 
     13 C13        31.3456   23.8687    3.6531 C.ar      12 UNK        -0.0762 
     14 C14        31.2313   23.2219    2.4203 C.ar      12 UNK        -0.0782 
     15 C15        30.3385   23.5678    4.7525 C.3       12 UNK         0.0230 
     16 S16        28.6512   24.0297    4.2410 S.3       12 UNK        -0.2608 
     17 C17        28.5211   25.7568    4.8128 C.3       12 UNK        -0.0989 
     18 CA         29.1286   26.8263    3.8650 C.3       5 UNK         0.0716 
     19 N          28.7545   26.6269    2.4595 N.am      5 UNK        -0.4135 
     20 C          29.1778   27.3788    1.4322 C.2       4 UNK         0.5031 
     21 O          29.9483   28.3306    1.5460 O.2       4 UNK        -0.5229 
     22 CA         28.5919   27.0716    0.0435 C.3       4 UNK         0.0329 
     23 CB         29.5039   26.0928   -0.7090 C.3       4 UNK        -0.2001 
     24 N          27.2005   26.5903    0.0362 N.am      4 UNK        -0.4303 
     25 C          26.1655   27.2013    0.6411 C.2       3 UNK         0.5044 
     26 O          26.2924   28.1937    1.3608 O.2       3 UNK        -0.5152 
     27 CA         24.7455   26.6481    0.4197 C.3       3 UNK         0.0319 
     28 CB         23.9187   27.6357   -0.4203 C.3       3 UNK        -0.2001 
     29 N          24.6927   25.3297   -0.2137 N.am      3 UNK        -0.4354 
     30 C          25.0051   24.1717    0.3820 C.2       2 UNK         0.4964 
     31 O          25.3967   24.0861    1.5464 O.2       2 UNK        -0.5047 
     32 CA         24.8809   22.8894   -0.4660 C.3       2 UNK         0.0288 
     33 CB         24.0867   23.0705   -1.7807 C.3       2 UNK        -0.2113 
     34 N          26.1943   22.3003   -0.7424 N.am      2 UNK        -0.4145 
     35 C          27.2502   22.8978   -1.3116 C.2       1 UNK         0.5006 
     36 O          27.2335   24.0553   -1.7349 O.2       1 UNK        -0.5103 
     37 C          28.7572   28.2302    4.3964 C.2       5 UNK         0.5055 
     38 O          29.4740   28.7604    5.2465 O.2       5 UNK        -0.5220 
     39 N          27.6365   28.7841    3.9101 N.am      6 UNK        -0.4450 
     40 CA         27.1085   30.0913    4.2991 C.3       6 UNK         0.0367 
     41 CB         25.5940   29.9660    4.5339 C.3       6 UNK        -0.1929 
     42 C          27.3903   31.1650    3.2375 C.2       6 UNK         0.5070 
     43 O          27.5402   32.3326    3.5978 O.2       6 UNK        -0.5237 
     44 N          27.4291   30.7730    1.9553 N.am      7 UNK        -0.4739 
     45 CA         27.6617   31.6762    0.8256 C.3       7 UNK         0.0276 
     46 CB         27.2320   30.9907   -0.4807 C.3       7 UNK        -0.1927 
     47 C          29.1145   32.1731    0.7311 C.2       7 UNK         0.5013 
     48 O          29.3282   33.3120    0.3118 O.2       7 UNK        -0.5193 
     49 N          30.0831   31.3292    1.1149 N.am      8 UNK        -0.4253 
     50 CA         31.4972   31.6968    1.2107 C.3       8 UNK         0.0242 
     51 CB         32.3477   30.4198    1.2399 C.3       8 UNK        -0.2000 
     52 C          31.7700   32.5442    2.4637 C.2       8 UNK         0.4948 
     53 O          31.0343   32.4514    3.4501 O.2       8 UNK        -0.5275 
     54 N          32.8557   33.3265    2.4245 N.am      9 UNK        -0.4246 
     55 CA         33.2989   34.2255    3.4953 C.3       9 UNK         0.0261 
     56 CB         34.2574   35.2728    2.8962 C.3       9 UNK        -0.1959 
     57 C          33.9143   33.4770    4.6976 C.2       9 UNK         0.5033 
     58 O          35.0877   33.6842    5.0129 O.2       9 UNK        -0.5390 
     59 N          33.1019   32.6259    5.3410 N.am      10 UNK        -0.4215 
     60 CA         33.3924   31.8236    6.5363 C.3       10 UNK         0.0240 
     61 CB         33.5249   32.7343    7.7761 C.3       10 UNK        -0.1982 
     62 C          34.6010   30.8861    6.3472 C.2       10 UNK         0.4970 
     63 O          35.5524   30.9336    7.1299 O.2       10 UNK        -0.4916 
     64 N          34.5422   30.0585    5.2960 N.am      11 UNK        -0.4279 
     65 CA         35.5915   29.0930    4.9298 C.3       11 UNK         0.1003 
     66 C          35.7932   27.9043    5.9174 C.2       11 UNK         0.5709 
     67 N          34.8772   27.6420    6.8424 N.am      11 UNK        -0.7358 
     68 O          36.8059   27.2124    5.8438 O.2       11 UNK        -0.4999 
     69 C69        35.4373   28.6153    3.4613 C.3       12 UNK        -0.0954 
     70 S70        33.8671   27.7455    3.1239 S.3       12 UNK        -0.2268 
     71 C71        34.4384   26.0220    3.0697 C.3       12 UNK         0.0203 
     72 H72        28.3072   18.6090   -3.4172 H         1 UNK         0.0888 
     73 H73        28.1938   17.6151   -1.9637 H         1 UNK         0.0888 
     74 H74        26.7246   18.1759   -2.7668 H         1 UNK         0.0888 
     75 H75        28.8297   20.7077   -2.9746 H         1 UNK         0.3017 
     76 H76        29.2036   22.6499   -2.0815 H         1 UNK         0.0873 
     77 H77        29.2947   23.0084    0.4154 H         1 UNK         0.0745 
     78 H78        28.7020   21.3995    0.6645 H         1 UNK         0.0745 
     79 H79        32.9712   22.6326   -0.3913 H         1 UNK         0.0705 
     80 H80        31.5725   23.6231   -0.7165 H         1 UNK         0.0705 
     81 H81        33.8191   24.6731    0.7821 H         1 UNK         0.1334 
     82 H82        32.4932   25.2726    4.8139 H         1 UNK         0.1417 
     83 H83        30.4350   22.5040    2.2996 H         1 UNK         0.1562 
     84 H84        30.6018   24.0695    5.6847 H         1 UNK         0.0748 
     85 H85        30.3597   22.4978    4.9638 H         1 UNK         0.0748 
     86 H86        27.4555   25.9467    4.9598 H         1 UNK         0.0940 
     87 H87        28.9702   25.8334    5.8051 H         1 UNK         0.0940 
     88 H88        30.2163   26.7442    3.9101 H         1 UNK         0.0703 
     89 H89        28.1219   25.8622    2.2732 H         1 UNK         0.3081 
     90 H90        28.5974   28.0080   -0.5139 H         1 UNK         0.0719 
     91 H91        29.5263   25.1191   -0.2256 H         1 UNK         0.0809 
     92 H92        29.1787   25.9546   -1.7401 H         1 UNK         0.0809 
     93 H93        30.5305   26.4609   -0.7415 H         1 UNK         0.0809 
     94 H94        27.0103   25.7770   -0.5401 H         1 UNK         0.2990 
     95 H95        24.2795   26.5691    1.4042 H         1 UNK         0.0690 
     96 H96        22.8841   27.3061   -0.5174 H         1 UNK         0.0788 
     97 H97        24.3303   27.7558   -1.4233 H         1 UNK         0.0788 
     98 H98        23.8984   28.6235    0.0431 H         1 UNK         0.0788 
     99 H99        24.4140   25.3028   -1.1842 H         1 UNK         0.2993 
    100 H100       24.3402   22.1699    0.1510 H         1 UNK         0.0949 
    101 H101       23.9478   22.1129   -2.2829 H         1 UNK         0.0767 
    102 H102       23.0916   23.4747   -1.5894 H         1 UNK         0.0767 
    103 H103       24.5895   23.7354   -2.4840 H         1 UNK         0.0767 
    104 H104       26.3323   21.3382   -0.4374 H         1 UNK         0.3013 
    105 H105       27.1368   28.3044    3.1678 H         1 UNK         0.3121 
    106 H106       27.5694   30.4214    5.2326 H         1 UNK         0.0774 
    107 H107       25.0707   29.6414    3.6332 H         1 UNK         0.0815 
    108 H108       25.1651   30.9230    4.8341 H         1 UNK         0.0815 
    109 H109       25.3742   29.2500    5.3259 H         1 UNK         0.0815 
    110 H110       27.2134   29.8054    1.7322 H         1 UNK         0.2987 
    111 H111       27.0270   32.5543    0.9656 H         1 UNK         0.0949 
    112 H112       27.8594   30.1311   -0.7098 H         1 UNK         0.0806 
    113 H113       26.1978   30.6491   -0.4312 H         1 UNK         0.0806 
    114 H114       27.3070   31.6797   -1.3230 H         1 UNK         0.0806 
    115 H115       29.8324   30.4048    1.4505 H         1 UNK         0.3010 
    116 H116       31.7685   32.2780    0.3266 H         1 UNK         0.0829 
    117 H117       32.1750   29.8041    0.3570 H         1 UNK         0.0813 
    118 H118       33.4136   30.6481    1.2745 H         1 UNK         0.0813 
    119 H119       32.1134   29.8158    2.1165 H         1 UNK         0.0813 
    120 H120       33.4319   33.3088    1.5949 H         1 UNK         0.3038 
    121 H121       32.4252   34.7620    3.8723 H         1 UNK         0.0769 
    122 H122       35.1551   34.8106    2.4835 H         1 UNK         0.0811 
    123 H123       34.5784   35.9882    3.6548 H         1 UNK         0.0811 
    124 H124       33.7767   35.8433    2.1012 H         1 UNK         0.0811 
    125 H125       32.1778   32.4998    4.9289 H         1 UNK         0.3204 
    126 H126       32.5258   31.1795    6.6939 H         1 UNK         0.0748 
    127 H127       33.6535   32.1432    8.6838 H         1 UNK         0.0771 
    128 H128       34.3831   33.4029    7.6987 H         1 UNK         0.0771 
    129 H129       32.6344   33.3477    7.9138 H         1 UNK         0.0771 
    130 H130       33.7233   30.0638    4.7067 H         1 UNK         0.2980 
    131 H131       36.5318   29.6465    4.9695 H         1 UNK         0.0545 
    132 H132       35.0244   26.8749    7.4786 H         1 UNK         0.3459 
    133 H133       34.0421   28.2003    6.9078 H         1 UNK         0.3459 
    134 H134       35.4819   29.4780    2.7950 H         1 UNK         0.0616 
    135 H135       36.2797   27.9845    3.1714 H         1 UNK         0.0616 
    136 H136       35.1946   25.9191    2.2899 H         1 UNK         0.0634 
    137 H137       34.9270   25.7683    4.0112 H         1 UNK         0.0634 
@<TRIPOS>BOND
     1    1    2 1    
     2    1   72 1    
     3    1   73 1    
     4    1   74 1    
     5    2    3 2    
     6    2    4 am   BACKBONE|DICT|INTERRES
     7    4    5 1    
     8    4   75 1    
     9    5    6 1    
    10    5   35 1    
    11    5   76 1    
    12    6    7 1    
    13    6   77 1    
    14    6   78 1    
    15    7    8 1    
    16    8    9 1    
    17    8   79 1    
    18    8   80 1    
    19    9   10 ar   
    20    9   14 ar   
    21   10   11 ar   
    22   10   81 1    
    23   11   12 ar   
    24   11   71 1    
    25   12   13 ar   
    26   12   82 1    
    27   13   14 ar   
    28   13   15 1    
    29   14   83 1    
    30   15   16 1    
    31   15   84 1    
    32   15   85 1    
    33   16   17 1    
    34   17   18 1    
    35   17   86 1    
    36   17   87 1    
    37   18   19 1    
    38   18   37 1    
    39   18   88 1    
    40   19   20 am   BACKBONE|DICT|INTERRES
    41   19   89 1    
    42   20   21 2    
    43   20   22 1    
    44   22   23 1    
    45   22   24 1    
    46   22   90 1    
    47   23   91 1    
    48   23   92 1    
    49   23   93 1    
    50   24   25 am   BACKBONE|DICT|INTERRES
    51   24   94 1    
    52   25   26 2    
    53   25   27 1    
    54   27   28 1    
    55   27   29 1    
    56   27   95 1    
    57   28   96 1    
    58   28   97 1    
    59   28   98 1    
    60   29   30 am   BACKBONE|DICT|INTERRES
    61   29   99 1    
    62   30   31 2    
    63   30   32 1    
    64   32   33 1    
    65   32   34 1    
    66   32  100 1    
    67   33  101 1    
    68   33  102 1    
    69   33  103 1    
    70   34   35 am   BACKBONE|DICT|INTERRES
    71   34  104 1    
    72   35   36 2    
    73   37   38 2    
    74   37   39 am   BACKBONE|DICT|INTERRES
    75   39   40 1    
    76   39  105 1    
    77   40   41 1    
    78   40   42 1    
    79   40  106 1    
    80   41  107 1    
    81   41  108 1    
    82   41  109 1    
    83   42   43 2    
    84   42   44 am   BACKBONE|DICT|INTERRES
    85   44   45 1    
    86   44  110 1    
    87   45   46 1    
    88   45   47 1    
    89   45  111 1    
    90   46  112 1    
    91   46  113 1    
    92   46  114 1    
    93   47   48 2    
    94   47   49 am   BACKBONE|DICT|INTERRES
    95   49   50 1    
    96   49  115 1    
    97   50   51 1    
    98   50   52 1    
    99   50  116 1    
   100   51  117 1    
   101   51  118 1    
   102   51  119 1    
   103   52   53 2    
   104   52   54 am   BACKBONE|DICT|INTERRES
   105   54   55 1    
   106   54  120 1    
   107   55   56 1    
   108   55   57 1    
   109   55  121 1    
   110   56  122 1    
   111   56  123 1    
   112   56  124 1    
   113   57   58 2    
   114   57   59 am   BACKBONE|DICT|INTERRES
   115   59   60 1    
   116   59  125 1    
   117   60   61 1    
   118   60   62 1    
   119   60  126 1    
   120   61  127 1    
   121   61  128 1    
   122   61  129 1    
   123   62   63 2    
   124   62   64 am   BACKBONE|DICT|INTERRES
   125   64   65 1    
   126   64  130 1    
   127   65   66 1    
   128   65   69 1    
   129   65  131 1    
   130   66   67 am   BACKBONE|DICT|INTERRES
   131   66   68 2    
   132   67  132 1    
   133   67  133 1    
   134   69   70 1    
   135   69  134 1    
   136   69  135 1    
   137   70   71 1    
   138   71  136 1    
   139   71  137 1    
@<TRIPOS>SUBSTRUCTURE
     1 UNK         1 GROUP             0       ****    0 ROOT    
