@<TRIPOS>MOLECULE
3R136
137   139    1
SMALL
USER_CHARGES


@<TRIPOS>ATOM
      1 CA         25.9065   21.9871   -1.6157 C.3       0 UNK        -0.1979 
      2 C          27.2687   22.4462   -2.1137 C.2       0 UNK         0.4864 
      3 O          27.5747   22.2865   -3.2960 O.2       0 UNK        -0.5359 
      4 N          28.0856   23.0106   -1.2171 N.am      1 UNK        -0.4318 
      5 CA         29.3964   23.5885   -1.5149 C.3       1 UNK         0.0824 
      6 C6         30.2984   23.5896   -0.2556 C.3       12 UNK        -0.0944 
      7 S7         32.0765   23.6549   -0.6522 S.3       12 UNK        -0.2672 
      8 C8         32.7566   22.4642    0.5473 C.3       12 UNK         0.0333 
      9 C9         32.7284   23.0167    1.9661 C.ar      12 UNK        -0.0807 
     10 C10        33.8126   23.7501    2.4543 C.ar      12 UNK        -0.0894 
     11 C11        33.8032   24.2497    3.7600 C.ar      12 UNK        -0.0804 
     12 C12        32.6857   24.0339    4.5736 C.ar      12 UNK        -0.0824 
     13 C13        31.5920   23.3031    4.0964 C.ar      12 UNK        -0.0762 
     14 C14        31.6295   22.7837    2.7981 C.ar      12 UNK        -0.0782 
     15 C15        30.3962   23.0239    5.0000 C.3       12 UNK         0.0230 
     16 S16        28.8001   23.4571    4.2302 S.3       12 UNK        -0.2608 
     17 C17        28.6993   25.2578    4.5205 C.3       12 UNK        -0.0989 
     18 CA         28.0210   26.0470    3.3634 C.3       5 UNK         0.0716 
     19 N          26.7165   25.4871    2.9935 N.am      5 UNK        -0.4135 
     20 C          26.4561   24.8648    1.8398 C.2       4 UNK         0.5031 
     21 O          27.3046   24.6010    0.9860 O.2       4 UNK        -0.5229 
     22 CA         24.9852   24.5494    1.5174 C.3       4 UNK         0.0329 
     23 CB         24.0550   24.4461    2.7489 C.3       4 UNK        -0.2001 
     24 N          24.5152   25.5318    0.5341 N.am      4 UNK        -0.4303 
     25 C          24.4341   26.8569    0.7289 C.2       3 UNK         0.5044 
     26 O          24.4631   27.3929    1.8377 O.2       3 UNK        -0.5152 
     27 CA         24.4745   27.7176   -0.5472 C.3       3 UNK         0.0319 
     28 CB         24.2671   29.2202   -0.2607 C.3       3 UNK        -0.2001 
     29 N          25.7300   27.4984   -1.2866 N.am      3 UNK        -0.4354 
     30 C          26.9797   27.6350   -0.8107 C.2       2 UNK         0.4964 
     31 O          27.2541   28.0220    0.3274 O.2       2 UNK        -0.5047 
     32 CA         28.1170   27.2107   -1.7433 C.3       2 UNK         0.0288 
     33 CB         29.3419   28.1433   -1.6301 C.3       2 UNK        -0.2113 
     34 N          28.4716   25.8451   -1.3746 N.am      2 UNK        -0.4145 
     35 C          29.2181   25.0020   -2.0995 C.2       1 UNK         0.5006 
     36 O          29.7168   25.2837   -3.1909 O.2       1 UNK        -0.5103 
     37 C          27.8875   27.5465    3.7247 C.2       5 UNK         0.5055 
     38 O          28.8428   28.1124    4.2564 O.2       5 UNK        -0.5220 
     39 N          26.7212   28.1735    3.4897 N.am      6 UNK        -0.4450 
     40 CA         26.4107   29.5226    3.9754 C.3       6 UNK         0.0367 
     41 CB         24.8903   29.7482    3.9612 C.3       6 UNK        -0.1929 
     42 C          27.1204   30.6450    3.2037 C.2       6 UNK         0.5070 
     43 O          27.4288   31.6742    3.8054 O.2       6 UNK        -0.5237 
     44 N          27.3663   30.4458    1.9017 N.am      7 UNK        -0.4739 
     45 CA         28.0623   31.4152    1.0486 C.3       7 UNK         0.0276 
     46 CB         27.4277   31.4272   -0.3516 C.3       7 UNK        -0.1927 
     47 C          29.5776   31.1593    0.9853 C.2       7 UNK         0.5013 
     48 O          30.3019   31.9888    0.4319 O.2       7 UNK        -0.5193 
     49 N          30.0511   30.0526    1.5773 N.am      8 UNK        -0.4253 
     50 CA         31.4688   29.7330    1.7541 C.3       8 UNK         0.0242 
     51 CB         31.6279   28.2133    1.9625 C.3       8 UNK        -0.2000 
     52 C          32.0519   30.5516    2.9214 C.2       8 UNK         0.4948 
     53 O          32.3774   29.9905    3.9665 O.2       8 UNK        -0.5275 
     54 N          32.1485   31.8759    2.7346 N.am      9 UNK        -0.4246 
     55 CA         32.5282   32.8639    3.7542 C.3       9 UNK         0.0261 
     56 CB         32.4932   34.2706    3.1360 C.3       9 UNK        -0.1959 
     57 C          33.8852   32.6067    4.4345 C.2       9 UNK         0.5033 
     58 O          34.0286   32.8934    5.6240 O.2       9 UNK        -0.5390 
     59 N          34.8377   32.0314    3.6875 N.am      10 UNK        -0.4215 
     60 CA         36.1474   31.5982    4.1837 C.3       10 UNK         0.0240 
     61 CB         37.0309   31.2054    2.9882 C.3       10 UNK        -0.1982 
     62 C          36.0803   30.4424    5.2022 C.2       10 UNK         0.4970 
     63 O          37.0200   30.2837    5.9825 O.2       10 UNK        -0.4916 
     64 N          34.9904   29.6651    5.1808 N.am      11 UNK        -0.4279 
     65 CA         34.7235   28.5510    6.1013 C.3       11 UNK         0.1003 
     66 C          33.9946   28.9902    7.4048 C.2       11 UNK         0.5709 
     67 N          33.6484   30.2604    7.5884 N.am      11 UNK        -0.7358 
     68 O          33.7561   28.1632    8.2820 O.2       11 UNK        -0.4999 
     69 C69        33.9753   27.3939    5.3843 C.3       12 UNK        -0.0954 
     70 S70        34.9034   26.7770    3.9369 S.3       12 UNK        -0.2268 
     71 C71        35.0173   24.9986    4.2879 C.3       12 UNK         0.0203 
     72 H72        25.8739   21.9291   -0.5282 H         1 UNK         0.0888 
     73 H73        25.1315   22.6766   -1.9488 H         1 UNK         0.0888 
     74 H74        25.6755   20.9975   -2.0092 H         1 UNK         0.0888 
     75 H75        27.7446   23.2003   -0.2790 H         1 UNK         0.3017 
     76 H76        29.8719   22.9667   -2.2771 H         1 UNK         0.0873 
     77 H77        30.0522   24.4016    0.4321 H         1 UNK         0.0745 
     78 H78        30.1143   22.6704    0.3007 H         1 UNK         0.0745 
     79 H79        32.2083   21.5225    0.4895 H         1 UNK         0.0705 
     80 H80        33.7840   22.2312    0.2632 H         1 UNK         0.0705 
     81 H81        34.6700   23.9261    1.8188 H         1 UNK         0.1334 
     82 H82        32.6767   24.4202    5.5835 H         1 UNK         0.1417 
     83 H83        30.7944   22.1996    2.4377 H         1 UNK         0.1562 
     84 H84        30.4893   23.5467    5.9533 H         1 UNK         0.0748 
     85 H85        30.3874   21.9590    5.2361 H         1 UNK         0.0748 
     86 H86        29.7093   25.6392    4.6851 H         1 UNK         0.0940 
     87 H87        28.1605   25.4119    5.4574 H         1 UNK         0.0940 
     88 H88        28.6922   26.0173    2.5022 H         1 UNK         0.0703 
     89 H89        25.9529   25.6718    3.6275 H         1 UNK         0.3081 
     90 H90        24.9764   23.5782    1.0220 H         1 UNK         0.0719 
     91 H91        23.9717   25.3769    3.3090 H         1 UNK         0.0809 
     92 H92        23.0476   24.1587    2.4479 H         1 UNK         0.0809 
     93 H93        24.4117   23.6808    3.4395 H         1 UNK         0.0809 
     94 H94        24.5026   25.2059   -0.4219 H         1 UNK         0.2990 
     95 H95        23.6569   27.3825   -1.1872 H         1 UNK         0.0690 
     96 H96        24.2766   29.8046   -1.1804 H         1 UNK         0.0788 
     97 H97        25.0383   29.6204    0.3969 H         1 UNK         0.0788 
     98 H98        23.3069   29.3936    0.2264 H         1 UNK         0.0788 
     99 H99        25.6186   27.1535   -2.2303 H         1 UNK         0.2993 
    100 H100       27.7604   27.2214   -2.7754 H         1 UNK         0.0949 
    101 H101       30.1510   27.8281   -2.2886 H         1 UNK         0.0767 
    102 H102       29.0851   29.1640   -1.9119 H         1 UNK         0.0767 
    103 H103       29.7349   28.1715   -0.6146 H         1 UNK         0.0767 
    104 H104       28.0791   25.5126   -0.4950 H         1 UNK         0.3013 
    105 H105       25.9960   27.7186    2.9393 H         1 UNK         0.3121 
    106 H106       26.7420   29.5848    5.0146 H         1 UNK         0.0774 
    107 H107       24.4949   29.7734    2.9454 H         1 UNK         0.0815 
    108 H108       24.6351   30.6995    4.4297 H         1 UNK         0.0815 
    109 H109       24.3643   28.9653    4.5076 H         1 UNK         0.0815 
    110 H110       27.1279   29.5517    1.4759 H         1 UNK         0.2987 
    111 H111       27.9399   32.4191    1.4612 H         1 UNK         0.0949 
    112 H112       26.3759   31.7090   -0.3045 H         1 UNK         0.0806 
    113 H113       27.4902   30.4573   -0.8380 H         1 UNK         0.0806 
    114 H114       27.9251   32.1490   -1.0010 H         1 UNK         0.0806 
    115 H115       29.3905   29.4564    2.0562 H         1 UNK         0.3010 
    116 H116       32.0137   30.0047    0.8475 H         1 UNK         0.0829 
    117 H117       32.6798   27.9450    2.0678 H         1 UNK         0.0813 
    118 H118       31.2355   27.6454    1.1197 H         1 UNK         0.0813 
    119 H119       31.1186   27.8696    2.8632 H         1 UNK         0.0813 
    120 H120       31.8053   32.2403    1.8517 H         1 UNK         0.3038 
    121 H121       31.7675   32.8182    4.5363 H         1 UNK         0.0769 
    122 H122       32.7452   35.0301    3.8778 H         1 UNK         0.0811 
    123 H123       31.5012   34.5116    2.7532 H         1 UNK         0.0811 
    124 H124       33.2035   34.3685    2.3142 H         1 UNK         0.0811 
    125 H125       34.6246   31.8292    2.7216 H         1 UNK         0.3204 
    126 H126       36.6105   32.4488    4.6884 H         1 UNK         0.0748 
    127 H127       38.0277   30.9105    3.3196 H         1 UNK         0.0771 
    128 H128       36.6103   30.3646    2.4347 H         1 UNK         0.0771 
    129 H129       37.1559   32.0375    2.2949 H         1 UNK         0.0771 
    130 H130       34.2244   29.8827    4.5505 H         1 UNK         0.2980 
    131 H131       35.6816   28.1473    6.4336 H         1 UNK         0.0545 
    132 H132       33.1846   30.5251    8.4426 H         1 UNK         0.3459 
    133 H133       33.8414   30.9568    6.8819 H         1 UNK         0.3459 
    134 H134       32.9882   27.7140    5.0491 H         1 UNK         0.0616 
    135 H135       33.8014   26.5711    6.0788 H         1 UNK         0.0616 
    136 H136       35.9204   24.6118    3.8133 H         1 UNK         0.0634 
    137 H137       35.1463   24.8268    5.3575 H         1 UNK         0.0634 
@<TRIPOS>BOND
     1    1    2 1    
     2    1   72 1    
     3    1   73 1    
     4    1   74 1    
     5    2    3 2    
     6    2    4 am   BACKBONE|DICT|INTERRES
     7    4    5 1    
     8    4   75 1    
     9    5    6 1    
    10    5   35 1    
    11    5   76 1    
    12    6    7 1    
    13    6   77 1    
    14    6   78 1    
    15    7    8 1    
    16    8    9 1    
    17    8   79 1    
    18    8   80 1    
    19    9   10 ar   
    20    9   14 ar   
    21   10   11 ar   
    22   10   81 1    
    23   11   12 ar   
    24   11   71 1    
    25   12   13 ar   
    26   12   82 1    
    27   13   14 ar   
    28   13   15 1    
    29   14   83 1    
    30   15   16 1    
    31   15   84 1    
    32   15   85 1    
    33   16   17 1    
    34   17   18 1    
    35   17   86 1    
    36   17   87 1    
    37   18   19 1    
    38   18   37 1    
    39   18   88 1    
    40   19   20 am   BACKBONE|DICT|INTERRES
    41   19   89 1    
    42   20   21 2    
    43   20   22 1    
    44   22   23 1    
    45   22   24 1    
    46   22   90 1    
    47   23   91 1    
    48   23   92 1    
    49   23   93 1    
    50   24   25 am   BACKBONE|DICT|INTERRES
    51   24   94 1    
    52   25   26 2    
    53   25   27 1    
    54   27   28 1    
    55   27   29 1    
    56   27   95 1    
    57   28   96 1    
    58   28   97 1    
    59   28   98 1    
    60   29   30 am   BACKBONE|DICT|INTERRES
    61   29   99 1    
    62   30   31 2    
    63   30   32 1    
    64   32   33 1    
    65   32   34 1    
    66   32  100 1    
    67   33  101 1    
    68   33  102 1    
    69   33  103 1    
    70   34   35 am   BACKBONE|DICT|INTERRES
    71   34  104 1    
    72   35   36 2    
    73   37   38 2    
    74   37   39 am   BACKBONE|DICT|INTERRES
    75   39   40 1    
    76   39  105 1    
    77   40   41 1    
    78   40   42 1    
    79   40  106 1    
    80   41  107 1    
    81   41  108 1    
    82   41  109 1    
    83   42   43 2    
    84   42   44 am   BACKBONE|DICT|INTERRES
    85   44   45 1    
    86   44  110 1    
    87   45   46 1    
    88   45   47 1    
    89   45  111 1    
    90   46  112 1    
    91   46  113 1    
    92   46  114 1    
    93   47   48 2    
    94   47   49 am   BACKBONE|DICT|INTERRES
    95   49   50 1    
    96   49  115 1    
    97   50   51 1    
    98   50   52 1    
    99   50  116 1    
   100   51  117 1    
   101   51  118 1    
   102   51  119 1    
   103   52   53 2    
   104   52   54 am   BACKBONE|DICT|INTERRES
   105   54   55 1    
   106   54  120 1    
   107   55   56 1    
   108   55   57 1    
   109   55  121 1    
   110   56  122 1    
   111   56  123 1    
   112   56  124 1    
   113   57   58 2    
   114   57   59 am   BACKBONE|DICT|INTERRES
   115   59   60 1    
   116   59  125 1    
   117   60   61 1    
   118   60   62 1    
   119   60  126 1    
   120   61  127 1    
   121   61  128 1    
   122   61  129 1    
   123   62   63 2    
   124   62   64 am   BACKBONE|DICT|INTERRES
   125   64   65 1    
   126   64  130 1    
   127   65   66 1    
   128   65   69 1    
   129   65  131 1    
   130   66   67 am   BACKBONE|DICT|INTERRES
   131   66   68 2    
   132   67  132 1    
   133   67  133 1    
   134   69   70 1    
   135   69  134 1    
   136   69  135 1    
   137   70   71 1    
   138   71  136 1    
   139   71  137 1    
@<TRIPOS>SUBSTRUCTURE
     1 UNK         1 GROUP             0       ****    0 ROOT    
