@<TRIPOS>MOLECULE
3R136
137   139    1
SMALL
USER_CHARGES


@<TRIPOS>ATOM
      1 CA         26.0119   21.5391   -0.5072 C.3       0 UNK        -0.1979 
      2 C          27.0264   22.6638   -0.3679 C.2       0 UNK         0.4864 
      3 O          27.3376   23.0653    0.7528 O.2       0 UNK        -0.5359 
      4 N          27.5446   23.1642   -1.4991 N.am      1 UNK        -0.4318 
      5 CA         28.5407   24.2384   -1.5998 C.3       1 UNK         0.0824 
      6 C6         29.9068   23.8403   -0.9787 C.3       12 UNK        -0.0944 
      7 S7         31.3046   24.5776   -1.8846 S.3       12 UNK        -0.2672 
      8 C8         32.7173   23.7906   -1.0524 C.3       12 UNK         0.0333 
      9 C9         32.7983   24.1993    0.4097 C.ar      12 UNK        -0.0807 
     10 C10        33.2908   25.4590    0.7592 C.ar      12 UNK        -0.0894 
     11 C11        33.3514   25.8621    2.0964 C.ar      12 UNK        -0.0804 
     12 C12        32.9172   24.9723    3.0893 C.ar      12 UNK        -0.0824 
     13 C13        32.4154   23.7106    2.7518 C.ar      12 UNK        -0.0762 
     14 C14        32.3654   23.3267    1.4105 C.ar      12 UNK        -0.0782 
     15 C15        31.9183   22.7610    3.8334 C.3       12 UNK         0.0230 
     16 S16        30.0974   22.7253    3.9254 S.3       12 UNK        -0.2608 
     17 C17        29.7260   24.4460    4.4024 C.3       12 UNK        -0.0989 
     18 CA         29.0761   25.2450    3.2363 C.3       5 UNK         0.0716 
     19 N          27.7127   24.7799    2.9398 N.am      5 UNK        -0.4135 
     20 C          26.6318   24.9229    3.7196 C.2       4 UNK         0.5031 
     21 O          26.6038   25.5924    4.7542 O.2       4 UNK        -0.5229 
     22 CA         25.3654   24.1799    3.2745 C.3       4 UNK         0.0329 
     23 CB         24.3665   23.9805    4.4375 C.3       4 UNK        -0.2001 
     24 N          24.7342   24.9021    2.1732 N.am      4 UNK        -0.4303 
     25 C          23.7881   24.4054    1.3699 C.2       3 UNK         0.5044 
     26 O          23.3492   23.2579    1.4556 O.2       3 UNK        -0.5152 
     27 CA         23.2219   25.3315    0.2803 C.3       3 UNK         0.0319 
     28 CB         22.2898   26.4043    0.8793 C.3       3 UNK        -0.2001 
     29 N          24.2367   25.9161   -0.6058 N.am      3 UNK        -0.4354 
     30 C          25.1738   26.8309   -0.3205 C.2       2 UNK         0.4964 
     31 O          25.3464   27.3212    0.7961 O.2       2 UNK        -0.5047 
     32 CA         26.0905   27.2100   -1.4958 C.3       2 UNK         0.0288 
     33 CB         26.8707   28.5201   -1.2686 C.3       2 UNK        -0.2113 
     34 N          26.9803   26.0915   -1.8273 N.am      2 UNK        -0.4145 
     35 C          27.9616   25.5716   -1.0719 C.2       1 UNK         0.5006 
     36 O          28.3569   26.0599   -0.0087 O.2       1 UNK        -0.5103 
     37 C          29.1378   26.7703    3.4705 C.2       5 UNK         0.5055 
     38 O          29.5080   27.2087    4.5612 O.2       5 UNK        -0.5220 
     39 N          28.7624   27.5531    2.4520 N.am      6 UNK        -0.4450 
     40 CA         28.7405   29.0200    2.5161 C.3       6 UNK         0.0367 
     41 CB         27.2953   29.5015    2.7375 C.3       6 UNK        -0.1929 
     42 C          29.3845   29.6735    1.2832 C.2       6 UNK         0.5070 
     43 O          29.1855   30.8681    1.0609 O.2       6 UNK        -0.5237 
     44 N          30.1383   28.8967    0.4910 N.am      7 UNK        -0.4739 
     45 CA         30.7774   29.3458   -0.7523 C.3       7 UNK         0.0276 
     46 CB         31.2235   28.1172   -1.5558 C.3       7 UNK        -0.1927 
     47 C          31.9504   30.3259   -0.5534 C.2       7 UNK         0.5013 
     48 O          32.3585   30.9735   -1.5186 O.2       7 UNK        -0.5193 
     49 N          32.4602   30.4301    0.6781 N.am      8 UNK        -0.4253 
     50 CA         33.4263   31.4285    1.1191 C.3       8 UNK         0.0242 
     51 CB         34.8174   30.7867    1.2537 C.3       8 UNK        -0.2000 
     52 C          32.9379   31.9572    2.4692 C.2       8 UNK         0.4948 
     53 O          32.4012   31.1787    3.2610 O.2       8 UNK        -0.5275 
     54 N          33.1597   33.2533    2.7251 N.am      9 UNK        -0.4246 
     55 CA         32.7035   33.9652    3.9272 C.3       9 UNK         0.0261 
     56 CB         32.9874   35.4674    3.7612 C.3       9 UNK        -0.1959 
     57 C          33.3006   33.4490    5.2504 C.2       9 UNK         0.5033 
     58 O          32.7045   33.6698    6.3054 O.2       9 UNK        -0.5390 
     59 N          34.4558   32.7749    5.1759 N.am      10 UNK        -0.4215 
     60 CA         35.1092   32.1129    6.3053 C.3       10 UNK         0.0240 
     61 CB         36.5699   31.8113    5.9308 C.3       10 UNK        -0.1982 
     62 C          34.3965   30.8236    6.7563 C.2       10 UNK         0.4970 
     63 O          34.5765   30.4227    7.9072 O.2       10 UNK        -0.4916 
     64 N          33.6320   30.1868    5.8592 N.am      11 UNK        -0.4279 
     65 CA         32.8984   28.9446    6.1324 C.3       11 UNK         0.1003 
     66 C          31.5359   29.2251    6.8198 C.2       11 UNK         0.5709 
     67 N          31.0861   28.3283    7.6875 N.am      11 UNK        -0.7358 
     68 O          30.8762   30.2316    6.5665 O.2       11 UNK        -0.4999 
     69 C69        32.7228   28.0907    4.8512 C.3       12 UNK        -0.0954 
     70 S70        34.3296   27.6047    4.1330 S.3       12 UNK        -0.2268 
     71 C71        33.8795   27.2671    2.3967 C.3       12 UNK         0.0203 
     72 H72        26.3572   20.6568    0.0310 H         1 UNK         0.0888 
     73 H73        25.0549   21.8411   -0.0845 H         1 UNK         0.0888 
     74 H74        25.8501   21.2597   -1.5481 H         1 UNK         0.0888 
     75 H75        27.2383   22.7806   -2.3827 H         1 UNK         0.3017 
     76 H76        28.6929   24.3730   -2.6723 H         1 UNK         0.0873 
     77 H77        29.9628   24.0944    0.0806 H         1 UNK         0.0745 
     78 H78        30.0380   22.7581   -1.0271 H         1 UNK         0.0745 
     79 H79        32.6396   22.7066   -1.1510 H         1 UNK         0.0705 
     80 H80        33.6364   24.0798   -1.5640 H         1 UNK         0.0705 
     81 H81        33.6219   26.1324   -0.0195 H         1 UNK         0.1334 
     82 H82        32.9578   25.2517    4.1308 H         1 UNK         0.1417 
     83 H83        31.9706   22.3547    1.1470 H         1 UNK         0.1562 
     84 H84        32.3253   23.0353    4.8080 H         1 UNK         0.0748 
     85 H85        32.2808   21.7530    3.6268 H         1 UNK         0.0748 
     86 H86        30.6479   24.9189    4.7420 H         1 UNK         0.0940 
     87 H87        29.0729   24.4357    5.2765 H         1 UNK         0.0940 
     88 H88        29.6659   25.0624    2.3364 H         1 UNK         0.0703 
     89 H89        27.6188   24.2167    2.0927 H         1 UNK         0.3081 
     90 H90        25.6730   23.1946    2.9175 H         1 UNK         0.0719 
     91 H91        24.8525   23.5071    5.2917 H         1 UNK         0.0809 
     92 H92        23.9539   24.9301    4.7802 H         1 UNK         0.0809 
     93 H93        23.5339   23.3389    4.1502 H         1 UNK         0.0809 
     94 H94        25.0678   25.8462    1.9887 H         1 UNK         0.2990 
     95 H95        22.6063   24.7038   -0.3665 H         1 UNK         0.0690 
     96 H96        21.8268   27.0072    0.0982 H         1 UNK         0.0788 
     97 H97        22.8164   27.0788    1.5549 H         1 UNK         0.0788 
     98 H98        21.4845   25.9414    1.4512 H         1 UNK         0.0788 
     99 H99        24.2195   25.5547   -1.5494 H         1 UNK         0.2993 
    100 H100       25.4483   27.3691   -2.3638 H         1 UNK         0.0949 
    101 H101       27.4879   28.4686   -0.3760 H         1 UNK         0.0767 
    102 H102       27.5200   28.7511   -2.1129 H         1 UNK         0.0767 
    103 H103       26.1885   29.3607   -1.1378 H         1 UNK         0.0767 
    104 H104       26.7427   25.5981   -2.6767 H         1 UNK         0.3013 
    105 H105       28.4621   27.1176    1.5796 H         1 UNK         0.3121 
    106 H106       29.3389   29.3656    3.3621 H         1 UNK         0.0774 
    107 H107       26.6663   29.2937    1.8726 H         1 UNK         0.0815 
    108 H108       26.8442   29.0190    3.6047 H         1 UNK         0.0815 
    109 H109       27.2625   30.5775    2.9121 H         1 UNK         0.0815 
    110 H110       30.2408   27.9199    0.7279 H         1 UNK         0.2987 
    111 H111       30.0240   29.8752   -1.3399 H         1 UNK         0.0949 
    112 H112       30.3745   27.4789   -1.7998 H         1 UNK         0.0806 
    113 H113       31.6879   28.4087   -2.4988 H         1 UNK         0.0806 
    114 H114       31.9488   27.5189   -1.0055 H         1 UNK         0.0806 
    115 H115       32.0095   29.9251    1.4298 H         1 UNK         0.3010 
    116 H116       33.4698   32.2546    0.4057 H         1 UNK         0.0829 
    117 H117       34.8363   30.0177    2.0265 H         1 UNK         0.0813 
    118 H118       35.5671   31.5327    1.5195 H         1 UNK         0.0813 
    119 H119       35.1344   30.3281    0.3169 H         1 UNK         0.0813 
    120 H120       33.6249   33.8130    2.0240 H         1 UNK         0.3038 
    121 H121       31.6220   33.8282    3.9945 H         1 UNK         0.0769 
    122 H122       32.4818   35.8739    2.8851 H         1 UNK         0.0811 
    123 H123       34.0546   35.6682    3.6589 H         1 UNK         0.0811 
    124 H124       32.6321   36.0302    4.6259 H         1 UNK         0.0811 
    125 H125       34.8813   32.6599    4.2681 H         1 UNK         0.3204 
    126 H126       35.1091   32.8014    7.1532 H         1 UNK         0.0748 
    127 H127       36.6371   31.1289    5.0822 H         1 UNK         0.0771 
    128 H128       37.1113   32.7224    5.6749 H         1 UNK         0.0771 
    129 H129       37.0983   31.3464    6.7645 H         1 UNK         0.0771 
    130 H130       33.4458   30.6115    4.9582 H         1 UNK         0.2980 
    131 H131       33.4940   28.3510    6.8295 H         1 UNK         0.0545 
    132 H132       30.1950   28.4842    8.1312 H         1 UNK         0.3459 
    133 H133       31.6102   27.4933    7.8954 H         1 UNK         0.3459 
    134 H134       32.1353   28.6324    4.1082 H         1 UNK         0.0616 
    135 H135       32.1658   27.1815    5.0790 H         1 UNK         0.0616 
    136 H136       34.7739   27.4362    1.7953 H         1 UNK         0.0634 
    137 H137       33.1455   28.0005    2.0631 H         1 UNK         0.0634 
@<TRIPOS>BOND
     1    1    2 1    
     2    1   72 1    
     3    1   73 1    
     4    1   74 1    
     5    2    3 2    
     6    2    4 am   BACKBONE|DICT|INTERRES
     7    4    5 1    
     8    4   75 1    
     9    5    6 1    
    10    5   35 1    
    11    5   76 1    
    12    6    7 1    
    13    6   77 1    
    14    6   78 1    
    15    7    8 1    
    16    8    9 1    
    17    8   79 1    
    18    8   80 1    
    19    9   10 ar   
    20    9   14 ar   
    21   10   11 ar   
    22   10   81 1    
    23   11   12 ar   
    24   11   71 1    
    25   12   13 ar   
    26   12   82 1    
    27   13   14 ar   
    28   13   15 1    
    29   14   83 1    
    30   15   16 1    
    31   15   84 1    
    32   15   85 1    
    33   16   17 1    
    34   17   18 1    
    35   17   86 1    
    36   17   87 1    
    37   18   19 1    
    38   18   37 1    
    39   18   88 1    
    40   19   20 am   BACKBONE|DICT|INTERRES
    41   19   89 1    
    42   20   21 2    
    43   20   22 1    
    44   22   23 1    
    45   22   24 1    
    46   22   90 1    
    47   23   91 1    
    48   23   92 1    
    49   23   93 1    
    50   24   25 am   BACKBONE|DICT|INTERRES
    51   24   94 1    
    52   25   26 2    
    53   25   27 1    
    54   27   28 1    
    55   27   29 1    
    56   27   95 1    
    57   28   96 1    
    58   28   97 1    
    59   28   98 1    
    60   29   30 am   BACKBONE|DICT|INTERRES
    61   29   99 1    
    62   30   31 2    
    63   30   32 1    
    64   32   33 1    
    65   32   34 1    
    66   32  100 1    
    67   33  101 1    
    68   33  102 1    
    69   33  103 1    
    70   34   35 am   BACKBONE|DICT|INTERRES
    71   34  104 1    
    72   35   36 2    
    73   37   38 2    
    74   37   39 am   BACKBONE|DICT|INTERRES
    75   39   40 1    
    76   39  105 1    
    77   40   41 1    
    78   40   42 1    
    79   40  106 1    
    80   41  107 1    
    81   41  108 1    
    82   41  109 1    
    83   42   43 2    
    84   42   44 am   BACKBONE|DICT|INTERRES
    85   44   45 1    
    86   44  110 1    
    87   45   46 1    
    88   45   47 1    
    89   45  111 1    
    90   46  112 1    
    91   46  113 1    
    92   46  114 1    
    93   47   48 2    
    94   47   49 am   BACKBONE|DICT|INTERRES
    95   49   50 1    
    96   49  115 1    
    97   50   51 1    
    98   50   52 1    
    99   50  116 1    
   100   51  117 1    
   101   51  118 1    
   102   51  119 1    
   103   52   53 2    
   104   52   54 am   BACKBONE|DICT|INTERRES
   105   54   55 1    
   106   54  120 1    
   107   55   56 1    
   108   55   57 1    
   109   55  121 1    
   110   56  122 1    
   111   56  123 1    
   112   56  124 1    
   113   57   58 2    
   114   57   59 am   BACKBONE|DICT|INTERRES
   115   59   60 1    
   116   59  125 1    
   117   60   61 1    
   118   60   62 1    
   119   60  126 1    
   120   61  127 1    
   121   61  128 1    
   122   61  129 1    
   123   62   63 2    
   124   62   64 am   BACKBONE|DICT|INTERRES
   125   64   65 1    
   126   64  130 1    
   127   65   66 1    
   128   65   69 1    
   129   65  131 1    
   130   66   67 am   BACKBONE|DICT|INTERRES
   131   66   68 2    
   132   67  132 1    
   133   67  133 1    
   134   69   70 1    
   135   69  134 1    
   136   69  135 1    
   137   70   71 1    
   138   71  136 1    
   139   71  137 1    
@<TRIPOS>SUBSTRUCTURE
     1 UNK         1 GROUP             0       ****    0 ROOT    
