@<TRIPOS>MOLECULE
3R136
137   139    1
SMALL
USER_CHARGES


@<TRIPOS>ATOM
      1 CA         32.1738   25.2759   -2.0441 C.3       0 UNK        -0.1979 
      2 C          31.1038   24.7058   -1.1254 C.2       0 UNK         0.4864 
      3 O          30.1832   25.4288   -0.7382 O.2       0 UNK        -0.5359 
      4 N          31.2174   23.4175   -0.7710 N.am      1 UNK        -0.4318 
      5 CA         30.2449   22.7042    0.0585 C.3       1 UNK         0.0824 
      6 C6         30.7937   21.3516    0.5715 C.3       12 UNK        -0.0944 
      7 S7         29.8103   20.7082    1.9689 S.3       12 UNK        -0.2672 
      8 C8         30.8394   21.1606    3.3999 C.3       12 UNK         0.0333 
      9 C9         30.8536   22.6621    3.6560 C.ar      12 UNK        -0.0807 
     10 C10        31.9346   23.4393    3.2263 C.ar      12 UNK        -0.0894 
     11 C11        31.9819   24.8055    3.5155 C.ar      12 UNK        -0.0804 
     12 C12        30.9456   25.3908    4.2458 C.ar      12 UNK        -0.0824 
     13 C13        29.8504   24.6319    4.6677 C.ar      12 UNK        -0.0762 
     14 C14        29.8071   23.2669    4.3626 C.ar      12 UNK        -0.0782 
     15 C15        28.7479   25.2750    5.5016 C.3       12 UNK         0.0230 
     16 S16        27.4291   26.0151    4.4823 S.3       12 UNK        -0.2608 
     17 C17        28.2738   27.4692    3.7763 C.3       12 UNK        -0.0989 
     18 CA         28.5454   27.2840    2.2616 C.3       5 UNK         0.0716 
     19 N          27.3140   27.4018    1.4616 N.am      5 UNK        -0.4135 
     20 C          26.6598   28.5360    1.1518 C.2       4 UNK         0.5031 
     21 O          27.0235   29.6550    1.5128 O.2       4 UNK        -0.5229 
     22 CA         25.4145   28.4419    0.2501 C.3       4 UNK         0.0329 
     23 CB         25.7839   28.8280   -1.1922 C.3       4 UNK        -0.2001 
     24 N          24.7838   27.1228    0.2433 N.am      4 UNK        -0.4303 
     25 C          24.0429   26.6177    1.2402 C.2       3 UNK         0.5044 
     26 O          23.7270   27.2512    2.2476 O.2       3 UNK        -0.5152 
     27 CA         23.5928   25.1472    1.0987 C.3       3 UNK         0.0319 
     28 CB         22.1421   25.0761    0.5950 C.3       3 UNK        -0.2001 
     29 N          24.4485   24.3288    0.2252 N.am      3 UNK        -0.4354 
     30 C          25.7606   24.1335    0.4141 C.2       2 UNK         0.4964 
     31 O          26.3906   24.6239    1.3563 O.2       2 UNK        -0.5047 
     32 CA         26.5120   23.3258   -0.6522 C.3       2 UNK         0.0288 
     33 CB         26.4972   24.0695   -2.0063 C.3       2 UNK        -0.2113 
     34 N          27.8741   23.1868   -0.1539 N.am      2 UNK        -0.4145 
     35 C          28.9101   22.5482   -0.6976 C.2       1 UNK         0.5006 
     36 O          28.8605   21.8845   -1.7364 O.2       1 UNK        -0.5103 
     37 C          29.6611   28.2124    1.7298 C.2       5 UNK         0.5055 
     38 O          30.0904   29.1428    2.4208 O.2       5 UNK        -0.5220 
     39 N          30.0376   27.9935    0.4606 N.am      6 UNK        -0.4450 
     40 CA         30.9867   28.7681   -0.3535 C.3       6 UNK         0.0367 
     41 CB         32.4105   28.6330    0.2237 C.3       6 UNK        -0.1929 
     42 C          30.6101   30.2510   -0.5679 C.2       6 UNK         0.5070 
     43 O          31.4393   31.0068   -1.0748 O.2       6 UNK        -0.5237 
     44 N          29.3985   30.6528   -0.1483 N.am      7 UNK        -0.4739 
     45 CA         28.9252   32.0325    0.0237 C.3       7 UNK         0.0276 
     46 CB         28.8070   32.7581   -1.3335 C.3       7 UNK        -0.1927 
     47 C          29.7543   32.8202    1.0628 C.2       7 UNK         0.5013 
     48 O          29.8115   34.0492    0.9873 O.2       7 UNK        -0.5193 
     49 N          30.3896   32.1022    2.0017 N.am      8 UNK        -0.4253 
     50 CA         31.3353   32.6488    2.9772 C.3       8 UNK         0.0242 
     51 CB         32.7677   32.3367    2.5099 C.3       8 UNK        -0.2000 
     52 C          31.1146   32.1231    4.4027 C.2       8 UNK         0.4948 
     53 O          31.6477   32.7269    5.3349 O.2       8 UNK        -0.5275 
     54 N          30.3848   31.0076    4.5677 N.am      9 UNK        -0.4246 
     55 CA         30.0819   30.2934    5.8192 C.3       9 UNK         0.0261 
     56 CB         29.3537   31.1868    6.8435 C.3       9 UNK        -0.1959 
     57 C          31.3060   29.5969    6.4396 C.2       9 UNK         0.5033 
     58 O          31.2541   28.3939    6.6926 O.2       9 UNK        -0.5390 
     59 N          32.3912   30.3546    6.6337 N.am      10 UNK        -0.4215 
     60 CA         33.6882   29.9019    7.1459 C.3       10 UNK         0.0240 
     61 CB         34.3491   31.0729    7.8952 C.3       10 UNK        -0.1982 
     62 C          34.6210   29.3476    6.0479 C.2       10 UNK         0.4970 
     63 O          35.7890   29.0831    6.3351 O.2       10 UNK        -0.4916 
     64 N          34.1063   29.2023    4.8192 N.am      11 UNK        -0.4279 
     65 CA         34.7996   28.7071    3.6152 C.3       11 UNK         0.1003 
     66 C          35.8377   29.6940    3.0007 C.2       11 UNK         0.5709 
     67 N          35.9402   30.9319    3.4696 N.am      11 UNK        -0.7358 
     68 O          36.5400   29.3440    2.0553 O.2       11 UNK        -0.4999 
     69 C69        35.3736   27.2633    3.7503 C.3       12 UNK        -0.0954 
     70 S70        34.2191   26.0619    4.4904 S.3       12 UNK        -0.2268 
     71 C71        33.1595   25.6567    3.0716 C.3       12 UNK         0.0203 
     72 H72        31.7114   25.7258   -2.9221 H         1 UNK         0.0888 
     73 H73        32.7432   26.0462   -1.5263 H         1 UNK         0.0888 
     74 H74        32.8699   24.5092   -2.3836 H         1 UNK         0.0888 
     75 H75        31.9739   22.8620   -1.1435 H         1 UNK         0.3017 
     76 H76        30.0734   23.3383    0.9319 H         1 UNK         0.0873 
     77 H77        31.8298   21.4616    0.8944 H         1 UNK         0.0745 
     78 H78        30.8104   20.6047   -0.2247 H         1 UNK         0.0745 
     79 H79        31.8529   20.7828    3.2553 H         1 UNK         0.0705 
     80 H80        30.4525   20.6482    4.2820 H         1 UNK         0.0705 
     81 H81        32.7478   22.9780    2.6828 H         1 UNK         0.1334 
     82 H82        31.0154   26.4375    4.5057 H         1 UNK         0.1417 
     83 H83        28.9708   22.6680    4.6974 H         1 UNK         0.1562 
     84 H84        29.1694   26.0345    6.1627 H         1 UNK         0.0748 
     85 H85        28.2989   24.5270    6.1567 H         1 UNK         0.0748 
     86 H86        29.1971   27.6322    4.3277 H         1 UNK         0.0940 
     87 H87        27.6655   28.3572    3.9560 H         1 UNK         0.0940 
     88 H88        28.9173   26.2691    2.1074 H         1 UNK         0.0703 
     89 H89        26.9061   26.5147    1.1845 H         1 UNK         0.3081 
     90 H90        24.6878   29.1676    0.6217 H         1 UNK         0.0719 
     91 H91        24.9044   28.8463   -1.8361 H         1 UNK         0.0809 
     92 H92        26.5048   28.1337   -1.6261 H         1 UNK         0.0809 
     93 H93        26.2291   29.8237   -1.2289 H         1 UNK         0.0809 
     94 H94        24.9680   26.5334   -0.5548 H         1 UNK         0.2990 
     95 H95        23.6302   24.7054    2.0967 H         1 UNK         0.0690 
     96 H96        21.7734   24.0502    0.5874 H         1 UNK         0.0788 
     97 H97        22.0451   25.4772   -0.4147 H         1 UNK         0.0788 
     98 H98        21.4762   25.6519    1.2396 H         1 UNK         0.0788 
     99 H99        24.0015   23.9024   -0.5742 H         1 UNK         0.2993 
    100 H100       26.0571   22.3381   -0.7461 H         1 UNK         0.0949 
    101 H101       26.9726   25.0487   -1.9315 H         1 UNK         0.0767 
    102 H102       27.0205   23.5073   -2.7795 H         1 UNK         0.0767 
    103 H103       25.4802   24.2235   -2.3683 H         1 UNK         0.0767 
    104 H104       28.0060   23.6929    0.7156 H         1 UNK         0.3013 
    105 H105       29.6860   27.1564   -0.0004 H         1 UNK         0.3121 
    106 H106       30.9809   28.3071   -1.3423 H         1 UNK         0.0774 
    107 H107       33.1528   29.0560   -0.4542 H         1 UNK         0.0815 
    108 H108       32.5036   29.1580    1.1733 H         1 UNK         0.0815 
    109 H109       32.6789   27.5899    0.3856 H         1 UNK         0.0815 
    110 H110       28.7994   29.9562    0.2786 H         1 UNK         0.2987 
    111 H111       27.9206   31.9593    0.4426 H         1 UNK         0.0949 
    112 H112       29.7835   32.9532   -1.7773 H         1 UNK         0.0806 
    113 H113       28.2240   32.1744   -2.0457 H         1 UNK         0.0806 
    114 H114       28.3067   33.7204   -1.2191 H         1 UNK         0.0806 
    115 H115       30.2780   31.0932    1.9842 H         1 UNK         0.3010 
    116 H116       31.2229   33.7335    3.0358 H         1 UNK         0.0829 
    117 H117       32.9642   32.7633    1.5260 H         1 UNK         0.0813 
    118 H118       33.5054   32.7551    3.1958 H         1 UNK         0.0813 
    119 H119       32.9469   31.2632    2.4481 H         1 UNK         0.0813 
    120 H120       30.0767   30.5154    3.7334 H         1 UNK         0.3038 
    121 H121       29.3803   29.5078    5.5444 H         1 UNK         0.0769 
    122 H122       29.9852   31.9934    7.2164 H         1 UNK         0.0811 
    123 H123       28.4593   31.6350    6.4109 H         1 UNK         0.0811 
    124 H124       29.0369   30.6025    7.7083 H         1 UNK         0.0811 
    125 H125       32.3180   31.3318    6.3527 H         1 UNK         0.3204 
    126 H126       33.5221   29.0921    7.8594 H         1 UNK         0.0748 
    127 H127       35.2920   30.7689    8.3520 H         1 UNK         0.0771 
    128 H128       34.5629   31.9089    7.2281 H         1 UNK         0.0771 
    129 H129       33.7092   31.4403    8.6978 H         1 UNK         0.0771 
    130 H130       33.1360   29.4433    4.6916 H         1 UNK         0.2980 
    131 H131       34.0146   28.6557    2.8630 H         1 UNK         0.0545 
    132 H132       35.3837   31.2318    4.2522 H         1 UNK         0.3459 
    133 H133       36.6085   31.5605    3.0531 H         1 UNK         0.3459 
    134 H134       35.6828   26.8818    2.7755 H         1 UNK         0.0616 
    135 H135       36.2741   27.2732    4.3663 H         1 UNK         0.0616 
    136 H136       33.7484   25.1454    2.3085 H         1 UNK         0.0634 
    137 H137       32.7848   26.5755    2.6195 H         1 UNK         0.0634 
@<TRIPOS>BOND
     1    1    2 1    
     2    1   72 1    
     3    1   73 1    
     4    1   74 1    
     5    2    3 2    
     6    2    4 am   BACKBONE|DICT|INTERRES
     7    4    5 1    
     8    4   75 1    
     9    5    6 1    
    10    5   35 1    
    11    5   76 1    
    12    6    7 1    
    13    6   77 1    
    14    6   78 1    
    15    7    8 1    
    16    8    9 1    
    17    8   79 1    
    18    8   80 1    
    19    9   10 ar   
    20    9   14 ar   
    21   10   11 ar   
    22   10   81 1    
    23   11   12 ar   
    24   11   71 1    
    25   12   13 ar   
    26   12   82 1    
    27   13   14 ar   
    28   13   15 1    
    29   14   83 1    
    30   15   16 1    
    31   15   84 1    
    32   15   85 1    
    33   16   17 1    
    34   17   18 1    
    35   17   86 1    
    36   17   87 1    
    37   18   19 1    
    38   18   37 1    
    39   18   88 1    
    40   19   20 am   BACKBONE|DICT|INTERRES
    41   19   89 1    
    42   20   21 2    
    43   20   22 1    
    44   22   23 1    
    45   22   24 1    
    46   22   90 1    
    47   23   91 1    
    48   23   92 1    
    49   23   93 1    
    50   24   25 am   BACKBONE|DICT|INTERRES
    51   24   94 1    
    52   25   26 2    
    53   25   27 1    
    54   27   28 1    
    55   27   29 1    
    56   27   95 1    
    57   28   96 1    
    58   28   97 1    
    59   28   98 1    
    60   29   30 am   BACKBONE|DICT|INTERRES
    61   29   99 1    
    62   30   31 2    
    63   30   32 1    
    64   32   33 1    
    65   32   34 1    
    66   32  100 1    
    67   33  101 1    
    68   33  102 1    
    69   33  103 1    
    70   34   35 am   BACKBONE|DICT|INTERRES
    71   34  104 1    
    72   35   36 2    
    73   37   38 2    
    74   37   39 am   BACKBONE|DICT|INTERRES
    75   39   40 1    
    76   39  105 1    
    77   40   41 1    
    78   40   42 1    
    79   40  106 1    
    80   41  107 1    
    81   41  108 1    
    82   41  109 1    
    83   42   43 2    
    84   42   44 am   BACKBONE|DICT|INTERRES
    85   44   45 1    
    86   44  110 1    
    87   45   46 1    
    88   45   47 1    
    89   45  111 1    
    90   46  112 1    
    91   46  113 1    
    92   46  114 1    
    93   47   48 2    
    94   47   49 am   BACKBONE|DICT|INTERRES
    95   49   50 1    
    96   49  115 1    
    97   50   51 1    
    98   50   52 1    
    99   50  116 1    
   100   51  117 1    
   101   51  118 1    
   102   51  119 1    
   103   52   53 2    
   104   52   54 am   BACKBONE|DICT|INTERRES
   105   54   55 1    
   106   54  120 1    
   107   55   56 1    
   108   55   57 1    
   109   55  121 1    
   110   56  122 1    
   111   56  123 1    
   112   56  124 1    
   113   57   58 2    
   114   57   59 am   BACKBONE|DICT|INTERRES
   115   59   60 1    
   116   59  125 1    
   117   60   61 1    
   118   60   62 1    
   119   60  126 1    
   120   61  127 1    
   121   61  128 1    
   122   61  129 1    
   123   62   63 2    
   124   62   64 am   BACKBONE|DICT|INTERRES
   125   64   65 1    
   126   64  130 1    
   127   65   66 1    
   128   65   69 1    
   129   65  131 1    
   130   66   67 am   BACKBONE|DICT|INTERRES
   131   66   68 2    
   132   67  132 1    
   133   67  133 1    
   134   69   70 1    
   135   69  134 1    
   136   69  135 1    
   137   70   71 1    
   138   71  136 1    
   139   71  137 1    
@<TRIPOS>SUBSTRUCTURE
     1 UNK         1 GROUP             0       ****    0 ROOT    
