@<TRIPOS>MOLECULE
3R136
137   139    1
SMALL
USER_CHARGES


@<TRIPOS>ATOM
      1 CA         27.4932   26.1847    4.7867 C.3       0 UNK        -0.1979 
      2 C          27.9031   25.3243    3.6018 C.2       0 UNK         0.4864 
      3 O          27.7452   25.7497    2.4561 O.2       0 UNK        -0.5359 
      4 N          28.4260   24.1188    3.8766 N.am      1 UNK        -0.4318 
      5 CA         28.8340   23.1074    2.8931 C.3       1 UNK         0.0824 
      6 C6         30.0515   23.5759    2.0492 C.3       12 UNK        -0.0944 
      7 S7         30.9783   22.1985    1.2860 S.3       12 UNK        -0.2672 
      8 C8         32.6776   22.4832    1.9051 C.3       12 UNK         0.0333 
      9 C9         33.2972   23.8423    1.5624 C.ar      12 UNK        -0.0807 
     10 C10        34.4329   24.2559    2.2657 C.ar      12 UNK        -0.0894 
     11 C11        35.0250   25.5023    2.0166 C.ar      12 UNK        -0.0804 
     12 C12        34.4531   26.3371    1.0507 C.ar      12 UNK        -0.0824 
     13 C13        33.3190   25.9461    0.3339 C.ar      12 UNK        -0.0762 
     14 C14        32.7709   24.6833    0.5745 C.ar      12 UNK        -0.0782 
     15 C15        32.7214   26.8901   -0.7104 C.3       12 UNK         0.0230 
     16 S16        30.9040   26.7704   -0.8856 S.3       12 UNK        -0.2608 
     17 C17        30.3127   27.4417    0.7061 C.3       12 UNK        -0.0989 
     18 CA         29.1712   28.4708    0.5148 C.3       5 UNK         0.0716 
     19 N          28.0215   27.8875   -0.1814 N.am      5 UNK        -0.4135 
     20 C          27.2296   28.5554   -1.0288 C.2       4 UNK         0.5031 
     21 O          27.3543   29.7548   -1.2793 O.2       4 UNK        -0.5229 
     22 CA         26.1023   27.7618   -1.7125 C.3       4 UNK         0.0329 
     23 CB         26.5609   27.2717   -3.0951 C.3       4 UNK        -0.2001 
     24 N          25.6022   26.6180   -0.9443 N.am      4 UNK        -0.4303 
     25 C          25.0213   26.6763    0.2593 C.2       3 UNK         0.5044 
     26 O          24.9193   27.7166    0.9081 O.2       3 UNK        -0.5152 
     27 CA         24.4485   25.3702    0.8419 C.3       3 UNK         0.0319 
     28 CB         23.0284   25.1100    0.3051 C.3       3 UNK        -0.2001 
     29 N          25.2982   24.1795    0.6931 N.am      3 UNK        -0.4354 
     30 C          25.7096   23.5401   -0.4117 C.2       2 UNK         0.4964 
     31 O          25.4157   23.8970   -1.5541 O.2       2 UNK        -0.5047 
     32 CA         26.6284   22.3150   -0.2008 C.3       2 UNK         0.0288 
     33 CB         27.2358   21.7971   -1.5183 C.3       2 UNK        -0.2113 
     34 N          27.7187   22.5911    0.7403 N.am      2 UNK        -0.4145 
     35 C          27.6061   22.6428    2.0741 C.2       1 UNK         0.5006 
     36 O          26.5553   22.3807    2.6658 O.2       1 UNK        -0.5103 
     37 C          28.7743   29.1503    1.8451 C.2       5 UNK         0.5055 
     38 O          29.6480   29.7232    2.5010 O.2       5 UNK        -0.5220 
     39 N          27.4842   29.1187    2.2223 N.am      6 UNK        -0.4450 
     40 CA         26.9419   29.7364    3.4401 C.3       6 UNK         0.0367 
     41 CB         25.4567   29.3732    3.5855 C.3       6 UNK        -0.1929 
     42 C          27.1261   31.2623    3.5262 C.2       6 UNK         0.5070 
     43 O          27.1035   31.8058    4.6308 O.2       6 UNK        -0.5237 
     44 N          27.3585   31.9291    2.3869 N.am      7 UNK        -0.4739 
     45 CA         27.7121   33.3486    2.2739 C.3       7 UNK         0.0276 
     46 CB         27.4235   33.8125    0.8339 C.3       7 UNK        -0.1927 
     47 C          29.1674   33.6389    2.7109 C.2       7 UNK         0.5013 
     48 O          29.9125   34.2911    1.9782 O.2       7 UNK        -0.5193 
     49 N          29.5426   33.1339    3.8951 N.am      8 UNK        -0.4253 
     50 CA         30.8322   33.2664    4.5855 C.3       8 UNK         0.0242 
     51 CB         31.0678   34.7336    5.0041 C.3       8 UNK        -0.2000 
     52 C          32.0458   32.6711    3.8387 C.2       8 UNK         0.4948 
     53 O          33.1797   33.0181    4.1753 O.2       8 UNK        -0.5275 
     54 N          31.8117   31.7855    2.8604 N.am      9 UNK        -0.4246 
     55 CA         32.8646   31.1293    2.0796 C.3       9 UNK         0.0261 
     56 CB         32.4048   30.9928    0.6193 C.3       9 UNK        -0.1959 
     57 C          33.2510   29.7571    2.6537 C.2       9 UNK         0.5033 
     58 O          34.3865   29.3282    2.4472 O.2       9 UNK        -0.5390 
     59 N          32.3052   29.0890    3.3313 N.am      10 UNK        -0.4215 
     60 CA         32.4393   27.7461    3.9005 C.3       10 UNK         0.0240 
     61 CB         31.0941   27.3166    4.5076 C.3       10 UNK        -0.1982 
     62 C          33.5613   27.6298    4.9442 C.2       10 UNK         0.4970 
     63 O          33.8337   28.5856    5.6741 O.2       10 UNK        -0.4916 
     64 N          34.1636   26.4371    5.0029 N.am      11 UNK        -0.4279 
     65 CA         35.2898   26.0977    5.8846 C.3       11 UNK         0.1003 
     66 C          34.9218   26.0273    7.3980 C.2       11 UNK         0.5709 
     67 N          33.6511   25.9445    7.7758 N.am      11 UNK        -0.7358 
     68 O          35.8110   26.0529    8.2457 O.2       11 UNK        -0.4999 
     69 C69        35.9881   24.7840    5.4302 C.3       12 UNK        -0.0954 
     70 S70        37.0553   24.8573    3.9404 S.3       12 UNK        -0.2268 
     71 C71        36.2737   26.0075    2.7498 C.3       12 UNK         0.0203 
     72 H72        27.6484   25.6732    5.7361 H         1 UNK         0.0888 
     73 H73        28.0746   27.1043    4.8002 H         1 UNK         0.0888 
     74 H74        26.4386   26.4451    4.7116 H         1 UNK         0.0888 
     75 H75        28.4917   23.8241    4.8407 H         1 UNK         0.3017 
     76 H76        29.1456   22.2410    3.4785 H         1 UNK         0.0873 
     77 H77        30.7358   24.1303    2.6934 H         1 UNK         0.0745 
     78 H78        29.7538   24.2828    1.2736 H         1 UNK         0.0745 
     79 H79        32.6675   22.3537    2.9886 H         1 UNK         0.0705 
     80 H80        33.3228   21.6993    1.5065 H         1 UNK         0.0705 
     81 H81        34.8501   23.5879    3.0044 H         1 UNK         0.1334 
     82 H82        34.8968   27.3046    0.8574 H         1 UNK         0.1417 
     83 H83        31.9175   24.3667   -0.0057 H         1 UNK         0.1562 
     84 H84        33.1766   26.6646   -1.6754 H         1 UNK         0.0748 
     85 H85        32.9811   27.9248   -0.4809 H         1 UNK         0.0748 
     86 H86        31.1577   27.9034    1.2139 H         1 UNK         0.0940 
     87 H87        29.9928   26.6160    1.3412 H         1 UNK         0.0940 
     88 H88        29.5708   29.2706   -0.1113 H         1 UNK         0.0703 
     89 H89        27.8344   26.9116    0.0018 H         1 UNK         0.3081 
     90 H90        25.2651   28.4484   -1.8532 H         1 UNK         0.0719 
     91 H91        26.9132   28.1023   -3.7083 H         1 UNK         0.0809 
     92 H92        27.3785   26.5538   -3.0164 H         1 UNK         0.0809 
     93 H93        25.7453   26.7931   -3.6375 H         1 UNK         0.0809 
     94 H94        25.6233   25.7064   -1.3968 H         1 UNK         0.2990 
     95 H95        24.3665   25.5291    1.9185 H         1 UNK         0.0690 
     96 H96        22.3774   25.9639    0.4971 H         1 UNK         0.0788 
     97 H97        22.5758   24.2433    0.7867 H         1 UNK         0.0788 
     98 H98        23.0243   24.9356   -0.7713 H         1 UNK         0.0788 
     99 H99        25.6346   23.7931    1.5695 H         1 UNK         0.2993 
    100 H100       26.0034   21.5201    0.2120 H         1 UNK         0.0949 
    101 H101       27.8493   20.9115   -1.3512 H         1 UNK         0.0767 
    102 H102       27.8595   22.5520   -1.9989 H         1 UNK         0.0767 
    103 H103       26.4552   21.5175   -2.2273 H         1 UNK         0.0767 
    104 H104       28.6166   22.8186    0.3362 H         1 UNK         0.3013 
    105 H105       26.8205   28.6189    1.6415 H         1 UNK         0.3121 
    106 H106       27.4819   29.3109    4.2871 H         1 UNK         0.0774 
    107 H107       25.0452   29.7692    4.5149 H         1 UNK         0.0815 
    108 H108       24.8625   29.7797    2.7661 H         1 UNK         0.0815 
    109 H109       25.3088   28.2938    3.6007 H         1 UNK         0.0815 
    110 H110       27.3796   31.3934    1.5309 H         1 UNK         0.2987 
    111 H111       27.0640   33.9190    2.9430 H         1 UNK         0.0949 
    112 H112       27.6158   34.8802    0.7193 H         1 UNK         0.0806 
    113 H113       28.0475   33.2880    0.1089 H         1 UNK         0.0806 
    114 H114       26.3809   33.6443    0.5635 H         1 UNK         0.0806 
    115 H115       28.8298   32.6079    4.3952 H         1 UNK         0.3010 
    116 H116       30.7374   32.6782    5.4994 H         1 UNK         0.0829 
    117 H117       31.2347   35.3774    4.1399 H         1 UNK         0.0813 
    118 H118       30.2173   35.1301    5.5588 H         1 UNK         0.0813 
    119 H119       31.9418   34.8247    5.6502 H         1 UNK         0.0813 
    120 H120       30.8564   31.5101    2.6644 H         1 UNK         0.3038 
    121 H121       33.7650   31.7475    2.0816 H         1 UNK         0.0769 
    122 H122       31.5145   30.3733    0.5315 H         1 UNK         0.0811 
    123 H123       33.1827   30.5352    0.0067 H         1 UNK         0.0811 
    124 H124       32.1793   31.9663    0.1835 H         1 UNK         0.0811 
    125 H125       31.3799   29.5031    3.3769 H         1 UNK         0.3204 
    126 H126       32.6683   27.0716    3.0747 H         1 UNK         0.0748 
    127 H127       31.1500   26.3097    4.9234 H         1 UNK         0.0771 
    128 H128       30.7817   27.9871    5.3092 H         1 UNK         0.0771 
    129 H129       30.3080   27.3057    3.7544 H         1 UNK         0.0771 
    130 H130       33.8697   25.7096    4.3686 H         1 UNK         0.2980 
    131 H131       36.0195   26.9052    5.8007 H         1 UNK         0.0545 
    132 H132       33.4310   25.9039    8.7583 H         1 UNK         0.3459 
    133 H133       32.9134   25.9277    7.0914 H         1 UNK         0.3459 
    134 H134       35.2474   23.9954    5.2904 H         1 UNK         0.0616 
    135 H135       36.6455   24.4156    6.2204 H         1 UNK         0.0616 
    136 H136       36.0668   26.9612    3.2351 H         1 UNK         0.0634 
    137 H137       37.0271   26.2286    1.9925 H         1 UNK         0.0634 
@<TRIPOS>BOND
     1    1    2 1    
     2    1   72 1    
     3    1   73 1    
     4    1   74 1    
     5    2    3 2    
     6    2    4 am   BACKBONE|DICT|INTERRES
     7    4    5 1    
     8    4   75 1    
     9    5    6 1    
    10    5   35 1    
    11    5   76 1    
    12    6    7 1    
    13    6   77 1    
    14    6   78 1    
    15    7    8 1    
    16    8    9 1    
    17    8   79 1    
    18    8   80 1    
    19    9   10 ar   
    20    9   14 ar   
    21   10   11 ar   
    22   10   81 1    
    23   11   12 ar   
    24   11   71 1    
    25   12   13 ar   
    26   12   82 1    
    27   13   14 ar   
    28   13   15 1    
    29   14   83 1    
    30   15   16 1    
    31   15   84 1    
    32   15   85 1    
    33   16   17 1    
    34   17   18 1    
    35   17   86 1    
    36   17   87 1    
    37   18   19 1    
    38   18   37 1    
    39   18   88 1    
    40   19   20 am   BACKBONE|DICT|INTERRES
    41   19   89 1    
    42   20   21 2    
    43   20   22 1    
    44   22   23 1    
    45   22   24 1    
    46   22   90 1    
    47   23   91 1    
    48   23   92 1    
    49   23   93 1    
    50   24   25 am   BACKBONE|DICT|INTERRES
    51   24   94 1    
    52   25   26 2    
    53   25   27 1    
    54   27   28 1    
    55   27   29 1    
    56   27   95 1    
    57   28   96 1    
    58   28   97 1    
    59   28   98 1    
    60   29   30 am   BACKBONE|DICT|INTERRES
    61   29   99 1    
    62   30   31 2    
    63   30   32 1    
    64   32   33 1    
    65   32   34 1    
    66   32  100 1    
    67   33  101 1    
    68   33  102 1    
    69   33  103 1    
    70   34   35 am   BACKBONE|DICT|INTERRES
    71   34  104 1    
    72   35   36 2    
    73   37   38 2    
    74   37   39 am   BACKBONE|DICT|INTERRES
    75   39   40 1    
    76   39  105 1    
    77   40   41 1    
    78   40   42 1    
    79   40  106 1    
    80   41  107 1    
    81   41  108 1    
    82   41  109 1    
    83   42   43 2    
    84   42   44 am   BACKBONE|DICT|INTERRES
    85   44   45 1    
    86   44  110 1    
    87   45   46 1    
    88   45   47 1    
    89   45  111 1    
    90   46  112 1    
    91   46  113 1    
    92   46  114 1    
    93   47   48 2    
    94   47   49 am   BACKBONE|DICT|INTERRES
    95   49   50 1    
    96   49  115 1    
    97   50   51 1    
    98   50   52 1    
    99   50  116 1    
   100   51  117 1    
   101   51  118 1    
   102   51  119 1    
   103   52   53 2    
   104   52   54 am   BACKBONE|DICT|INTERRES
   105   54   55 1    
   106   54  120 1    
   107   55   56 1    
   108   55   57 1    
   109   55  121 1    
   110   56  122 1    
   111   56  123 1    
   112   56  124 1    
   113   57   58 2    
   114   57   59 am   BACKBONE|DICT|INTERRES
   115   59   60 1    
   116   59  125 1    
   117   60   61 1    
   118   60   62 1    
   119   60  126 1    
   120   61  127 1    
   121   61  128 1    
   122   61  129 1    
   123   62   63 2    
   124   62   64 am   BACKBONE|DICT|INTERRES
   125   64   65 1    
   126   64  130 1    
   127   65   66 1    
   128   65   69 1    
   129   65  131 1    
   130   66   67 am   BACKBONE|DICT|INTERRES
   131   66   68 2    
   132   67  132 1    
   133   67  133 1    
   134   69   70 1    
   135   69  134 1    
   136   69  135 1    
   137   70   71 1    
   138   71  136 1    
   139   71  137 1    
@<TRIPOS>SUBSTRUCTURE
     1 UNK         1 GROUP             0       ****    0 ROOT    
