@<TRIPOS>MOLECULE
3R136
137   139    1
SMALL
USER_CHARGES


@<TRIPOS>ATOM
      1 CA         26.2240   20.8918   -0.5199 C.3       0 UNK        -0.1979 
      2 C          26.7263   21.8472    0.5517 C.2       0 UNK         0.4864 
      3 O          26.0197   22.0806    1.5341 O.2       0 UNK        -0.5359 
      4 N          27.9291   22.4094    0.3535 N.am      1 UNK        -0.4318 
      5 CA         28.6224   23.3746    1.2190 C.3       1 UNK         0.0824 
      6 C6         29.3275   22.7326    2.4429 C.3       12 UNK        -0.0944 
      7 S7         30.6970   21.6416    1.9303 S.3       12 UNK        -0.2672 
      8 C8         32.1778   22.5994    2.4283 C.3       12 UNK         0.0333 
      9 C9         32.4794   23.8471    1.5920 C.ar      12 UNK        -0.0807 
     10 C10        33.2401   24.8771    2.1591 C.ar      12 UNK        -0.0894 
     11 C11        33.5713   26.0175    1.4181 C.ar      12 UNK        -0.0804 
     12 C12        33.1058   26.1428    0.1053 C.ar      12 UNK        -0.0824 
     13 C13        32.3629   25.1161   -0.4842 C.ar      12 UNK        -0.0762 
     14 C14        32.0735   23.9662    0.2569 C.ar      12 UNK        -0.0782 
     15 C15        31.9308   25.2088   -1.9417 C.3       12 UNK         0.0230 
     16 S16        30.1168   25.2005   -2.1246 S.3       12 UNK        -0.2608 
     17 C17        29.7394   26.8873   -2.7350 C.3       12 UNK        -0.0989 
     18 CA         28.7184   27.6629   -1.8564 C.3       5 UNK         0.0716 
     19 N          27.5070   26.8761   -1.5889 N.am      5 UNK        -0.4135 
     20 C          26.5382   26.6967   -2.4951 C.2       4 UNK         0.5031 
     21 O          26.4367   27.3700   -3.5224 O.2       4 UNK        -0.5229 
     22 CA         25.5489   25.5407   -2.2801 C.3       4 UNK         0.0329 
     23 CB         26.1863   24.2133   -2.7285 C.3       4 UNK        -0.2001 
     24 N          25.0664   25.3935   -0.9026 N.am      4 UNK        -0.4303 
     25 C          23.7712   25.2398   -0.5804 C.2       3 UNK         0.5044 
     26 O          22.8511   25.3780   -1.3883 O.2       3 UNK        -0.5152 
     27 CA         23.4095   24.8150    0.8575 C.3       3 UNK         0.0319 
     28 CB         22.7663   23.4171    0.8568 C.3       3 UNK        -0.2001 
     29 N          24.5529   24.7949    1.7684 N.am      3 UNK        -0.4354 
     30 C          24.9963   25.8596    2.4501 C.2       2 UNK         0.4964 
     31 O          24.4525   26.9637    2.4241 O.2       2 UNK        -0.5047 
     32 CA         26.2801   25.6761    3.2811 C.3       2 UNK         0.0288 
     33 CB         25.9362   25.4137    4.7558 C.3       2 UNK        -0.2113 
     34 N          27.1684   24.6106    2.7979 N.am      2 UNK        -0.4145 
     35 C          27.7143   24.5635    1.5741 C.2       1 UNK         0.5006 
     36 O          27.5118   25.4204    0.7133 O.2       1 UNK        -0.5103 
     37 C          29.3925   28.2466   -0.6010 C.2       5 UNK         0.5055 
     38 O          30.0495   29.2834   -0.7187 O.2       5 UNK        -0.5220 
     39 N          29.2413   27.6175    0.5728 N.am      6 UNK        -0.4450 
     40 CA         29.9165   28.0086    1.8165 C.3       6 UNK         0.0367 
     41 CB         30.0876   26.7773    2.7222 C.3       6 UNK        -0.1929 
     42 C          29.2043   29.1728    2.5310 C.2       6 UNK         0.5070 
     43 O          28.8506   29.0605    3.7055 O.2       6 UNK        -0.5237 
     44 N          28.9888   30.2705    1.7981 N.am      7 UNK        -0.4739 
     45 CA         28.3841   31.5062    2.2999 C.3       7 UNK         0.0276 
     46 CB         27.7615   32.2708    1.1205 C.3       7 UNK        -0.1927 
     47 C          29.3916   32.3966    3.0484 C.2       7 UNK         0.5013 
     48 O          28.9747   33.2274    3.8569 O.2       7 UNK        -0.5193 
     49 N          30.6886   32.2270    2.7577 N.am      8 UNK        -0.4253 
     50 CA         31.7866   32.9510    3.3944 C.3       8 UNK         0.0242 
     51 CB         33.0400   32.8410    2.5098 C.3       8 UNK        -0.2000 
     52 C          32.0767   32.3889    4.7926 C.2       8 UNK         0.4948 
     53 O          32.1002   31.1685    4.9651 O.2       8 UNK        -0.5275 
     54 N          32.3716   33.2824    5.7476 N.am      9 UNK        -0.4246 
     55 CA         32.7498   32.9400    7.1260 C.3       9 UNK         0.0261 
     56 CB         32.8604   34.2259    7.9610 C.3       9 UNK        -0.1959 
     57 C          34.0493   32.1189    7.2259 C.2       9 UNK         0.5033 
     58 O          34.2033   31.3398    8.1677 O.2       9 UNK        -0.5390 
     59 N          34.9345   32.2700    6.2295 N.am      10 UNK        -0.4215 
     60 CA         36.1685   31.5008    6.0513 C.3       10 UNK         0.0240 
     61 CB         36.9351   32.0589    4.8409 C.3       10 UNK        -0.1982 
     62 C          35.9514   29.9831    5.8932 C.2       10 UNK         0.4970 
     63 O          36.8741   29.2215    6.1865 O.2       10 UNK        -0.4916 
     64 N          34.7543   29.5671    5.4553 N.am      11 UNK        -0.4279 
     65 CA         34.3445   28.1568    5.3939 C.3       11 UNK         0.1003 
     66 C          33.9728   27.5443    6.7772 C.2       11 UNK         0.5709 
     67 N          33.8758   28.3155    7.8557 N.am      11 UNK        -0.7358 
     68 O          33.7809   26.3348    6.8767 O.2       11 UNK        -0.4999 
     69 C69        33.2125   27.9210    4.3601 C.3       12 UNK        -0.0954 
     70 S70        33.6225   28.5115    2.6840 S.3       12 UNK        -0.2268 
     71 C71        34.5030   27.0758    1.9971 C.3       12 UNK         0.0203 
     72 H72        26.9360   20.7838   -1.3380 H         1 UNK         0.0888 
     73 H73        26.0485   19.9062   -0.0896 H         1 UNK         0.0888 
     74 H74        25.2843   21.2557   -0.9344 H         1 UNK         0.0888 
     75 H75        28.4362   22.1666   -0.4857 H         1 UNK         0.3017 
     76 H76        29.3967   23.8168    0.5942 H         1 UNK         0.0873 
     77 H77        29.7281   23.4985    3.1102 H         1 UNK         0.0745 
     78 H78        28.6229   22.1436    3.0326 H         1 UNK         0.0745 
     79 H79        32.0761   22.8709    3.4804 H         1 UNK         0.0705 
     80 H80        33.0430   21.9382    2.3672 H         1 UNK         0.0705 
     81 H81        33.6020   24.7776    3.1734 H         1 UNK         0.1334 
     82 H82        33.3603   27.0230   -0.4693 H         1 UNK         0.1417 
     83 H83        31.5309   23.1623   -0.2203 H         1 UNK         0.1562 
     84 H84        32.3324   24.3477   -2.4777 H         1 UNK         0.0748 
     85 H85        32.3660   26.0850   -2.4232 H         1 UNK         0.0748 
     86 H86        29.3315   26.7784   -3.7411 H         1 UNK         0.0940 
     87 H87        30.6545   27.4676   -2.8654 H         1 UNK         0.0940 
     88 H88        28.4117   28.5446   -2.4239 H         1 UNK         0.0703 
     89 H89        27.5231   26.2847   -0.7611 H         1 UNK         0.3081 
     90 H90        24.7104   25.7406   -2.9506 H         1 UNK         0.0719 
     91 H91        27.0326   23.9393   -2.0976 H         1 UNK         0.0809 
     92 H92        25.4652   23.3965   -2.6968 H         1 UNK         0.0809 
     93 H93        26.5537   24.2809   -3.7536 H         1 UNK         0.0809 
     94 H94        25.7680   25.3186   -0.1745 H         1 UNK         0.2990 
     95 H95        22.6667   25.5251    1.2272 H         1 UNK         0.0690 
     96 H96        22.4648   23.1188    1.8610 H         1 UNK         0.0788 
     97 H97        23.4497   22.6587    0.4732 H         1 UNK         0.0788 
     98 H98        21.8718   23.3955    0.2327 H         1 UNK         0.0788 
     99 H99        25.0607   23.9179    1.8405 H         1 UNK         0.2993 
    100 H100       26.8263   26.6197    3.2212 H         1 UNK         0.0949 
    101 H101       26.8338   25.3886    5.3742 H         1 UNK         0.0767 
    102 H102       25.2939   26.2009    5.1534 H         1 UNK         0.0767 
    103 H103       25.4102   24.4667    4.8848 H         1 UNK         0.0767 
    104 H104       27.3339   23.8401    3.4293 H         1 UNK         0.3013 
    105 H105       28.6441   26.7978    0.6237 H         1 UNK         0.3121 
    106 H106       30.9190   28.3576    1.5626 H         1 UNK         0.0774 
    107 H107       30.7352   27.0067    3.5651 H         1 UNK         0.0815 
    108 H108       29.1435   26.4487    3.1471 H         1 UNK         0.0815 
    109 H109       30.5363   25.9435    2.1844 H         1 UNK         0.0815 
    110 H110       29.3043   30.2573    0.8322 H         1 UNK         0.2987 
    111 H111       27.5866   31.2514    3.0018 H         1 UNK         0.0949 
    112 H112       28.5107   32.5502    0.3786 H         1 UNK         0.0806 
    113 H113       26.9989   31.6741    0.6197 H         1 UNK         0.0806 
    114 H114       27.2807   33.1891    1.4610 H         1 UNK         0.0806 
    115 H115       30.9400   31.4864    2.1203 H         1 UNK         0.3010 
    116 H116       31.5084   34.0041    3.4776 H         1 UNK         0.0829 
    117 H117       32.8585   33.2422    1.5125 H         1 UNK         0.0813 
    118 H118       33.8723   33.4026    2.9360 H         1 UNK         0.0813 
    119 H119       33.3679   31.8059    2.4000 H         1 UNK         0.0813 
    120 H120       32.3341   34.2667    5.5218 H         1 UNK         0.3038 
    121 H121       31.9484   32.3272    7.5444 H         1 UNK         0.0769 
    122 H122       33.6310   34.8946    7.5755 H         1 UNK         0.0811 
    123 H123       33.1164   33.9970    8.9966 H         1 UNK         0.0811 
    124 H124       31.9170   34.7721    7.9769 H         1 UNK         0.0811 
    125 H125       34.7154   32.9417    5.5091 H         1 UNK         0.3204 
    126 H126       36.7785   31.6487    6.9449 H         1 UNK         0.0748 
    127 H127       37.8775   31.5282    4.6968 H         1 UNK         0.0771 
    128 H128       36.3611   31.9587    3.9185 H         1 UNK         0.0771 
    129 H129       37.1780   33.1133    4.9746 H         1 UNK         0.0771 
    130 H130       34.0283   30.2421    5.2460 H         1 UNK         0.2980 
    131 H131       35.2074   27.5837    5.0504 H         1 UNK         0.0545 
    132 H132       34.0344   29.3152    7.8061 H         1 UNK         0.3459 
    133 H133       33.6400   27.8920    8.7387 H         1 UNK         0.3459 
    134 H134       32.9606   26.8614    4.3031 H         1 UNK         0.0616 
    135 H135       32.3040   28.4345    4.6796 H         1 UNK         0.0616 
    136 H136       35.1493   26.6410    2.7608 H         1 UNK         0.0634 
    137 H137       35.1716   27.4313    1.2118 H         1 UNK         0.0634 
@<TRIPOS>BOND
     1    1    2 1    
     2    1   72 1    
     3    1   73 1    
     4    1   74 1    
     5    2    3 2    
     6    2    4 am   BACKBONE|DICT|INTERRES
     7    4    5 1    
     8    4   75 1    
     9    5    6 1    
    10    5   35 1    
    11    5   76 1    
    12    6    7 1    
    13    6   77 1    
    14    6   78 1    
    15    7    8 1    
    16    8    9 1    
    17    8   79 1    
    18    8   80 1    
    19    9   10 ar   
    20    9   14 ar   
    21   10   11 ar   
    22   10   81 1    
    23   11   12 ar   
    24   11   71 1    
    25   12   13 ar   
    26   12   82 1    
    27   13   14 ar   
    28   13   15 1    
    29   14   83 1    
    30   15   16 1    
    31   15   84 1    
    32   15   85 1    
    33   16   17 1    
    34   17   18 1    
    35   17   86 1    
    36   17   87 1    
    37   18   19 1    
    38   18   37 1    
    39   18   88 1    
    40   19   20 am   BACKBONE|DICT|INTERRES
    41   19   89 1    
    42   20   21 2    
    43   20   22 1    
    44   22   23 1    
    45   22   24 1    
    46   22   90 1    
    47   23   91 1    
    48   23   92 1    
    49   23   93 1    
    50   24   25 am   BACKBONE|DICT|INTERRES
    51   24   94 1    
    52   25   26 2    
    53   25   27 1    
    54   27   28 1    
    55   27   29 1    
    56   27   95 1    
    57   28   96 1    
    58   28   97 1    
    59   28   98 1    
    60   29   30 am   BACKBONE|DICT|INTERRES
    61   29   99 1    
    62   30   31 2    
    63   30   32 1    
    64   32   33 1    
    65   32   34 1    
    66   32  100 1    
    67   33  101 1    
    68   33  102 1    
    69   33  103 1    
    70   34   35 am   BACKBONE|DICT|INTERRES
    71   34  104 1    
    72   35   36 2    
    73   37   38 2    
    74   37   39 am   BACKBONE|DICT|INTERRES
    75   39   40 1    
    76   39  105 1    
    77   40   41 1    
    78   40   42 1    
    79   40  106 1    
    80   41  107 1    
    81   41  108 1    
    82   41  109 1    
    83   42   43 2    
    84   42   44 am   BACKBONE|DICT|INTERRES
    85   44   45 1    
    86   44  110 1    
    87   45   46 1    
    88   45   47 1    
    89   45  111 1    
    90   46  112 1    
    91   46  113 1    
    92   46  114 1    
    93   47   48 2    
    94   47   49 am   BACKBONE|DICT|INTERRES
    95   49   50 1    
    96   49  115 1    
    97   50   51 1    
    98   50   52 1    
    99   50  116 1    
   100   51  117 1    
   101   51  118 1    
   102   51  119 1    
   103   52   53 2    
   104   52   54 am   BACKBONE|DICT|INTERRES
   105   54   55 1    
   106   54  120 1    
   107   55   56 1    
   108   55   57 1    
   109   55  121 1    
   110   56  122 1    
   111   56  123 1    
   112   56  124 1    
   113   57   58 2    
   114   57   59 am   BACKBONE|DICT|INTERRES
   115   59   60 1    
   116   59  125 1    
   117   60   61 1    
   118   60   62 1    
   119   60  126 1    
   120   61  127 1    
   121   61  128 1    
   122   61  129 1    
   123   62   63 2    
   124   62   64 am   BACKBONE|DICT|INTERRES
   125   64   65 1    
   126   64  130 1    
   127   65   66 1    
   128   65   69 1    
   129   65  131 1    
   130   66   67 am   BACKBONE|DICT|INTERRES
   131   66   68 2    
   132   67  132 1    
   133   67  133 1    
   134   69   70 1    
   135   69  134 1    
   136   69  135 1    
   137   70   71 1    
   138   71  136 1    
   139   71  137 1    
@<TRIPOS>SUBSTRUCTURE
     1 UNK         1 GROUP             0       ****    0 ROOT    
