@<TRIPOS>MOLECULE
3R136
137   139    1
SMALL
USER_CHARGES


@<TRIPOS>ATOM
      1 CA         27.9669   23.2573    5.2155 C.3       0 UNK        -0.1979 
      2 C          28.6043   24.6230    4.9828 C.2       0 UNK         0.4864 
      3 O          28.9431   25.2984    5.9531 O.2       0 UNK        -0.5359 
      4 N          28.7766   25.0797    3.7347 N.am      1 UNK        -0.4318 
      5 CA         28.3628   24.4401    2.4789 C.3       1 UNK         0.0824 
      6 C6         29.5809   24.0100    1.6206 C.3       12 UNK        -0.0944 
      7 S7         30.6602   22.8166    2.4854 S.3       12 UNK        -0.2672 
      8 C8         31.9131   22.4444    1.2155 C.3       12 UNK         0.0333 
      9 C9         32.5927   23.7007    0.6891 C.ar      12 UNK        -0.0807 
     10 C10        33.4080   24.4698    1.5250 C.ar      12 UNK        -0.0894 
     11 C11        33.9955   25.6482    1.0547 C.ar      12 UNK        -0.0804 
     12 C12        33.7724   26.0483   -0.2666 C.ar      12 UNK        -0.0824 
     13 C13        32.9593   25.2872   -1.1122 C.ar      12 UNK        -0.0762 
     14 C14        32.3839   24.1071   -0.6313 C.ar      12 UNK        -0.0782 
     15 C15        32.6931   25.7504   -2.5401 C.3       12 UNK         0.0230 
     16 S16        30.9131   25.8669   -2.9236 S.3       12 UNK        -0.2608 
     17 C17        30.3178   26.9403   -1.5734 C.3       12 UNK        -0.0989 
     18 CA         28.9306   27.5689   -1.8768 C.3       5 UNK         0.0716 
     19 N          27.8942   26.5595   -2.0775 N.am      5 UNK        -0.4135 
     20 C          27.2087   26.3526   -3.2073 C.2       4 UNK         0.5031 
     21 O          27.4722   26.8715   -4.2929 O.2       4 UNK        -0.5229 
     22 CA         25.9532   25.4877   -3.0697 C.3       4 UNK         0.0329 
     23 CB         26.2780   24.0421   -2.6458 C.3       4 UNK        -0.2001 
     24 N          25.0820   26.1438   -2.1000 N.am      4 UNK        -0.4303 
     25 C          23.7601   25.9907   -1.9710 C.2       3 UNK         0.5044 
     26 O          23.0899   25.2096   -2.6485 O.2       3 UNK        -0.5152 
     27 CA         23.0771   26.8936   -0.9196 C.3       3 UNK         0.0319 
     28 CB         21.7483   26.3113   -0.3905 C.3       3 UNK        -0.2001 
     29 N          23.9815   27.2771    0.1771 N.am      3 UNK        -0.4354 
     30 C          24.5291   26.4608    1.0901 C.2       2 UNK         0.4964 
     31 O          24.2303   25.2728    1.2328 O.2       2 UNK        -0.5047 
     32 CA         25.5996   27.0956    1.9949 C.3       2 UNK         0.0288 
     33 CB         24.9552   27.8009    3.1993 C.3       2 UNK        -0.2113 
     34 N          26.5733   26.1190    2.4849 N.am      2 UNK        -0.4145 
     35 C          27.4182   25.4022    1.7259 C.2       1 UNK         0.5006 
     36 O          27.4805   25.5027    0.4980 O.2       1 UNK        -0.5103 
     37 C          28.4033   28.5063   -0.7677 C.2       5 UNK         0.5055 
     38 O          27.2301   28.8898   -0.8152 O.2       5 UNK        -0.5220 
     39 N          29.2476   28.8473    0.2122 N.am      6 UNK        -0.4450 
     40 CA         28.9018   29.6195    1.4049 C.3       6 UNK         0.0367 
     41 CB         29.7579   30.8999    1.4350 C.3       6 UNK        -0.1929 
     42 C          29.1444   28.7588    2.6538 C.2       6 UNK         0.5070 
     43 O          29.6488   27.6377    2.5479 O.2       6 UNK        -0.5237 
     44 N          28.7755   29.2960    3.8229 N.am      7 UNK        -0.4739 
     45 CA         29.0096   28.6788    5.1313 C.3       7 UNK         0.0276 
     46 CB         28.3834   29.5647    6.2196 C.3       7 UNK        -0.1927 
     47 C          30.5086   28.4740    5.4147 C.2       7 UNK         0.5013 
     48 O          31.3138   29.3137    5.0103 O.2       7 UNK        -0.5193 
     49 N          30.8482   27.4009    6.1407 N.am      8 UNK        -0.4253 
     50 CA         32.2152   26.9673    6.4678 C.3       8 UNK         0.0242 
     51 CB         32.1440   25.7367    7.3864 C.3       8 UNK        -0.2000 
     52 C          33.1375   28.0391    7.0838 C.2       8 UNK         0.4948 
     53 O          34.3508   27.9753    6.8849 O.2       8 UNK        -0.5275 
     54 N          32.5552   29.0010    7.8117 N.am      9 UNK        -0.4246 
     55 CA         33.2601   30.1453    8.3935 C.3       9 UNK         0.0261 
     56 CB         32.4790   30.6269    9.6280 C.3       9 UNK        -0.1959 
     57 C          33.4679   31.3126    7.4069 C.2       9 UNK         0.5033 
     58 O          34.2746   32.1954    7.7039 O.2       9 UNK        -0.5390 
     59 N          32.7303   31.3308    6.2882 N.am      10 UNK        -0.4215 
     60 CA         32.7038   32.4222    5.3120 C.3       10 UNK         0.0240 
     61 CB         31.2406   32.8255    5.0579 C.3       10 UNK        -0.1982 
     62 C          33.3822   32.0486    3.9852 C.2       10 UNK         0.4970 
     63 O          33.9538   32.9346    3.3479 O.2       10 UNK        -0.4916 
     64 N          33.2897   30.7767    3.5724 N.am      11 UNK        -0.4279 
     65 CA         33.8597   30.2611    2.3187 C.3       11 UNK         0.1003 
     66 C          35.4133   30.3348    2.2353 C.2       11 UNK         0.5709 
     67 N          35.9668   30.2975    1.0299 N.am      11 UNK        -0.7358 
     68 O          36.1204   30.3986    3.2397 O.2       11 UNK        -0.4999 
     69 C69        33.3040   28.8524    1.9751 C.3       12 UNK        -0.0954 
     70 S70        33.8625   27.5214    3.0922 S.3       12 UNK        -0.2268 
     71 C71        34.8657   26.4869    1.9802 C.3       12 UNK         0.0203 
     72 H72        28.4986   22.4800    4.6675 H         1 UNK         0.0888 
     73 H73        28.0009   22.9963    6.2730 H         1 UNK         0.0888 
     74 H74        26.9224   23.2596    4.9057 H         1 UNK         0.0888 
     75 H75        29.2122   25.9864    3.5879 H         1 UNK         0.3017 
     76 H76        27.7631   23.5497    2.6679 H         1 UNK         0.0873 
     77 H77        29.2550   23.5550    0.6832 H         1 UNK         0.0745 
     78 H78        30.1736   24.8870    1.3534 H         1 UNK         0.0745 
     79 H79        32.6655   21.7808    1.6437 H         1 UNK         0.0705 
     80 H80        31.4390   21.8887    0.4050 H         1 UNK         0.0705 
     81 H81        33.5646   24.1632    2.5503 H         1 UNK         0.1334 
     82 H82        34.2259   26.9583   -0.6342 H         1 UNK         0.1417 
     83 H83        31.7489   23.5210   -1.2820 H         1 UNK         0.1562 
     84 H84        33.1595   25.0497   -3.2337 H         1 UNK         0.0748 
     85 H85        33.1537   26.7218   -2.7266 H         1 UNK         0.0748 
     86 H86        31.0671   27.7190   -1.4195 H         1 UNK         0.0940 
     87 H87        30.2803   26.3470   -0.6572 H         1 UNK         0.0940 
     88 H88        29.0283   28.1889   -2.7703 H         1 UNK         0.0703 
     89 H89        27.6058   26.0837   -1.2232 H         1 UNK         0.3081 
     90 H90        25.4503   25.4666   -4.0390 H         1 UNK         0.0719 
     91 H91        26.9877   23.5843   -3.3359 H         1 UNK         0.0809 
     92 H92        25.3820   23.4214   -2.6438 H         1 UNK         0.0809 
     93 H93        26.7140   23.9954   -1.6475 H         1 UNK         0.0809 
     94 H94        25.5304   26.8453   -1.5254 H         1 UNK         0.2990 
     95 H95        22.8357   27.8205   -1.4420 H         1 UNK         0.0690 
     96 H96        21.2984   26.9637    0.3577 H         1 UNK         0.0788 
     97 H97        21.8834   25.3270    0.0583 H         1 UNK         0.0788 
     98 H98        21.0242   26.1988   -1.1983 H         1 UNK         0.0788 
     99 H99        24.2825   28.2430    0.1654 H         1 UNK         0.2993 
    100 H100       26.1488   27.8352    1.4101 H         1 UNK         0.0949 
    101 H101       25.7049   28.2960    3.8174 H         1 UNK         0.0767 
    102 H102       24.2491   28.5666    2.8751 H         1 UNK         0.0767 
    103 H103       24.4077   27.0996    3.8306 H         1 UNK         0.0767 
    104 H104       26.5837   25.9594    3.4806 H         1 UNK         0.3013 
    105 H105       30.1522   28.3998    0.2490 H         1 UNK         0.3121 
    106 H106       27.8462   29.8986    1.3946 H         1 UNK         0.0774 
    107 H107       29.6043   31.4959    0.5353 H         1 UNK         0.0815 
    108 H108       29.4996   31.5331    2.2842 H         1 UNK         0.0815 
    109 H109       30.8221   30.6789    1.5083 H         1 UNK         0.0815 
    110 H110       28.3863   30.2271    3.8295 H         1 UNK         0.2987 
    111 H111       28.5065   27.7120    5.1358 H         1 UNK         0.0949 
    112 H112       28.8454   30.5525    6.2519 H         1 UNK         0.0806 
    113 H113       27.3138   29.6984    6.0566 H         1 UNK         0.0806 
    114 H114       28.5037   29.1158    7.2066 H         1 UNK         0.0806 
    115 H115       30.1134   26.7312    6.3605 H         1 UNK         0.3010 
    116 H116       32.6745   26.6525    5.5309 H         1 UNK         0.0829 
    117 H117       33.1424   25.3729    7.6335 H         1 UNK         0.0813 
    118 H118       31.6361   25.9634    8.3245 H         1 UNK         0.0813 
    119 H119       31.6122   24.9145    6.9068 H         1 UNK         0.0813 
    120 H120       31.5538   28.9666    7.9354 H         1 UNK         0.3038 
    121 H121       34.2488   29.8209    8.7255 H         1 UNK         0.0769 
    122 H122       31.4785   30.9723    9.3646 H         1 UNK         0.0811 
    123 H123       32.9918   31.4574   10.1156 H         1 UNK         0.0811 
    124 H124       32.3775   29.8332   10.3685 H         1 UNK         0.0811 
    125 H125       32.1474   30.5265    6.0647 H         1 UNK         0.3204 
    126 H126       33.2260   33.2953    5.7089 H         1 UNK         0.0748 
    127 H127       30.7575   33.1587    5.9765 H         1 UNK         0.0771 
    128 H128       31.1794   33.6473    4.3431 H         1 UNK         0.0771 
    129 H129       30.6564   31.9973    4.6545 H         1 UNK         0.0771 
    130 H130       32.7610   30.1106    4.1281 H         1 UNK         0.2980 
    131 H131       33.4915   30.9340    1.5417 H         1 UNK         0.0545 
    132 H132       35.4039   30.2465    0.1957 H         1 UNK         0.3459 
    133 H133       36.9711   30.3351    0.9536 H         1 UNK         0.3459 
    134 H134       32.2149   28.8632    2.0111 H         1 UNK         0.0616 
    135 H135       33.5545   28.6000    0.9454 H         1 UNK         0.0616 
    136 H136       35.4898   25.8282    2.5856 H         1 UNK         0.0634 
    137 H137       35.5507   27.1167    1.4104 H         1 UNK         0.0634 
@<TRIPOS>BOND
     1    1    2 1    
     2    1   72 1    
     3    1   73 1    
     4    1   74 1    
     5    2    3 2    
     6    2    4 am   BACKBONE|DICT|INTERRES
     7    4    5 1    
     8    4   75 1    
     9    5    6 1    
    10    5   35 1    
    11    5   76 1    
    12    6    7 1    
    13    6   77 1    
    14    6   78 1    
    15    7    8 1    
    16    8    9 1    
    17    8   79 1    
    18    8   80 1    
    19    9   10 ar   
    20    9   14 ar   
    21   10   11 ar   
    22   10   81 1    
    23   11   12 ar   
    24   11   71 1    
    25   12   13 ar   
    26   12   82 1    
    27   13   14 ar   
    28   13   15 1    
    29   14   83 1    
    30   15   16 1    
    31   15   84 1    
    32   15   85 1    
    33   16   17 1    
    34   17   18 1    
    35   17   86 1    
    36   17   87 1    
    37   18   19 1    
    38   18   37 1    
    39   18   88 1    
    40   19   20 am   BACKBONE|DICT|INTERRES
    41   19   89 1    
    42   20   21 2    
    43   20   22 1    
    44   22   23 1    
    45   22   24 1    
    46   22   90 1    
    47   23   91 1    
    48   23   92 1    
    49   23   93 1    
    50   24   25 am   BACKBONE|DICT|INTERRES
    51   24   94 1    
    52   25   26 2    
    53   25   27 1    
    54   27   28 1    
    55   27   29 1    
    56   27   95 1    
    57   28   96 1    
    58   28   97 1    
    59   28   98 1    
    60   29   30 am   BACKBONE|DICT|INTERRES
    61   29   99 1    
    62   30   31 2    
    63   30   32 1    
    64   32   33 1    
    65   32   34 1    
    66   32  100 1    
    67   33  101 1    
    68   33  102 1    
    69   33  103 1    
    70   34   35 am   BACKBONE|DICT|INTERRES
    71   34  104 1    
    72   35   36 2    
    73   37   38 2    
    74   37   39 am   BACKBONE|DICT|INTERRES
    75   39   40 1    
    76   39  105 1    
    77   40   41 1    
    78   40   42 1    
    79   40  106 1    
    80   41  107 1    
    81   41  108 1    
    82   41  109 1    
    83   42   43 2    
    84   42   44 am   BACKBONE|DICT|INTERRES
    85   44   45 1    
    86   44  110 1    
    87   45   46 1    
    88   45   47 1    
    89   45  111 1    
    90   46  112 1    
    91   46  113 1    
    92   46  114 1    
    93   47   48 2    
    94   47   49 am   BACKBONE|DICT|INTERRES
    95   49   50 1    
    96   49  115 1    
    97   50   51 1    
    98   50   52 1    
    99   50  116 1    
   100   51  117 1    
   101   51  118 1    
   102   51  119 1    
   103   52   53 2    
   104   52   54 am   BACKBONE|DICT|INTERRES
   105   54   55 1    
   106   54  120 1    
   107   55   56 1    
   108   55   57 1    
   109   55  121 1    
   110   56  122 1    
   111   56  123 1    
   112   56  124 1    
   113   57   58 2    
   114   57   59 am   BACKBONE|DICT|INTERRES
   115   59   60 1    
   116   59  125 1    
   117   60   61 1    
   118   60   62 1    
   119   60  126 1    
   120   61  127 1    
   121   61  128 1    
   122   61  129 1    
   123   62   63 2    
   124   62   64 am   BACKBONE|DICT|INTERRES
   125   64   65 1    
   126   64  130 1    
   127   65   66 1    
   128   65   69 1    
   129   65  131 1    
   130   66   67 am   BACKBONE|DICT|INTERRES
   131   66   68 2    
   132   67  132 1    
   133   67  133 1    
   134   69   70 1    
   135   69  134 1    
   136   69  135 1    
   137   70   71 1    
   138   71  136 1    
   139   71  137 1    
@<TRIPOS>SUBSTRUCTURE
     1 UNK         1 GROUP             0       ****    0 ROOT    
