@<TRIPOS>MOLECULE
3R136
137   139    1
SMALL
USER_CHARGES


@<TRIPOS>ATOM
      1 CA         26.8931   18.4390    3.9084 C.3       0 UNK        -0.1979 
      2 C          27.0398   19.3663    2.7107 C.2       0 UNK         0.4864 
      3 O          26.4230   19.1251    1.6714 O.2       0 UNK        -0.5359 
      4 N          27.8579   20.4177    2.8453 N.am      1 UNK        -0.4318 
      5 CA         28.0881   21.4393    1.8183 C.3       1 UNK         0.0824 
      6 C6         29.3135   22.3240    2.1502 C.3       12 UNK        -0.0944 
      7 S7         30.8606   21.3690    2.2553 S.3       12 UNK        -0.2672 
      8 C8         32.0340   22.6708    2.7749 C.3       12 UNK         0.0333 
      9 C9         32.4433   23.6862    1.7024 C.ar      12 UNK        -0.0807 
     10 C10        33.2151   24.7840    2.0976 C.ar      12 UNK        -0.0894 
     11 C11        33.6584   25.7271    1.1653 C.ar      12 UNK        -0.0804 
     12 C12        33.3211   25.5671   -0.1820 C.ar      12 UNK        -0.0824 
     13 C13        32.5556   24.4737   -0.6005 C.ar      12 UNK        -0.0762 
     14 C14        32.1203   23.5411    0.3457 C.ar      12 UNK        -0.0782 
     15 C15        32.2626   24.2425   -2.0799 C.3       12 UNK         0.0230 
     16 S16        31.5496   25.6883   -2.9283 S.3       12 UNK        -0.2608 
     17 C17        29.8822   25.7885   -2.1972 C.3       12 UNK        -0.0989 
     18 CA         29.5490   27.2342   -1.7492 C.3       5 UNK         0.0716 
     19 N          28.1086   27.4867   -1.7383 N.am      5 UNK        -0.4135 
     20 C          27.5234   28.6077   -2.1856 C.2       4 UNK         0.5031 
     21 O          28.1271   29.5283   -2.7378 O.2       4 UNK        -0.5229 
     22 CA         26.0001   28.7327   -1.9890 C.3       4 UNK         0.0329 
     23 CB         25.2547   28.2340   -3.2376 C.3       4 UNK        -0.2001 
     24 N          25.5130   28.0061   -0.8153 N.am      4 UNK        -0.4303 
     25 C          25.7985   28.3288    0.4543 C.2       3 UNK         0.5044 
     26 O          26.3892   29.3584    0.7775 O.2       3 UNK        -0.5152 
     27 CA         25.3779   27.3248    1.5453 C.3       3 UNK         0.0319 
     28 CB         24.1289   27.8290    2.2858 C.3       3 UNK        -0.2001 
     29 N          25.1320   25.9591    1.0597 N.am      3 UNK        -0.4354 
     30 C          26.0496   25.1631    0.4942 C.2       2 UNK         0.4964 
     31 O          27.2082   25.5115    0.2504 O.2       2 UNK        -0.5047 
     32 CA         25.5848   23.7655    0.0636 C.3       2 UNK         0.0288 
     33 CB         25.3204   23.7380   -1.4509 C.3       2 UNK        -0.2113 
     34 N          26.6060   22.7722    0.3936 N.am      2 UNK        -0.4145 
     35 C          26.8439   22.3302    1.6353 C.2       1 UNK         0.5006 
     36 O          26.1574   22.6355    2.6153 O.2       1 UNK        -0.5103 
     37 C          30.1340   27.5700   -0.3676 C.2       5 UNK         0.5055 
     38 O          31.0520   28.3867   -0.2796 O.2       5 UNK        -0.5220 
     39 N          29.5584   26.9776    0.6893 N.am      6 UNK        -0.4450 
     40 CA         29.9131   27.2073    2.0890 C.3       6 UNK         0.0367 
     41 CB         29.4787   25.9919    2.9250 C.3       6 UNK        -0.1929 
     42 C          29.3066   28.5255    2.5993 C.2       6 UNK         0.5070 
     43 O          28.4102   28.5102    3.4455 O.2       6 UNK        -0.5237 
     44 N          29.7842   29.6451    2.0439 N.am      7 UNK        -0.4739 
     45 CA         29.2791   31.0043    2.2510 C.3       7 UNK         0.0276 
     46 CB         29.7634   31.8901    1.0884 C.3       7 UNK        -0.1927 
     47 C          29.6266   31.5876    3.6358 C.2       7 UNK         0.5013 
     48 O          30.3100   32.6110    3.7255 O.2       7 UNK        -0.5193 
     49 N          29.1344   30.9242    4.6909 N.am      8 UNK        -0.4253 
     50 CA         29.2239   31.2905    6.1072 C.3       8 UNK         0.0242 
     51 CB         28.2575   32.4588    6.4097 C.3       8 UNK        -0.2000 
     52 C          30.6787   31.5431    6.5441 C.2       8 UNK         0.4948 
     53 O          31.5003   30.6300    6.4467 O.2       8 UNK        -0.5275 
     54 N          30.9856   32.7735    6.9772 N.am      9 UNK        -0.4246 
     55 CA         32.2995   33.2242    7.4474 C.3       9 UNK         0.0261 
     56 CB         32.1844   34.6807    7.9270 C.3       9 UNK        -0.1959 
     57 C          33.4489   33.0833    6.4299 C.2       9 UNK         0.5033 
     58 O          34.6080   33.0893    6.8472 O.2       9 UNK        -0.5390 
     59 N          33.1324   32.9446    5.1332 N.am      10 UNK        -0.4215 
     60 CA         34.1125   32.6614    4.0823 C.3       10 UNK         0.0240 
     61 CB         33.4770   32.9162    2.7068 C.3       10 UNK        -0.1982 
     62 C          34.6777   31.2296    4.1456 C.2       10 UNK         0.4970 
     63 O          35.7910   31.0179    3.6624 O.2       10 UNK        -0.4916 
     64 N          33.9151   30.2856    4.7157 N.am      11 UNK        -0.4279 
     65 CA         34.2685   28.8596    4.8077 C.3       11 UNK         0.1003 
     66 C          34.2900   28.3252    6.2651 C.2       11 UNK         0.5709 
     67 N          33.5695   28.9162    7.2093 N.am      11 UNK        -0.7358 
     68 O          34.9944   27.3595    6.5497 O.2       11 UNK        -0.4999 
     69 C69        33.3500   27.9893    3.9112 C.3       12 UNK        -0.0954 
     70 S70        33.5978   28.3382    2.1366 S.3       12 UNK        -0.2268 
     71 C71        34.5511   26.8851    1.5960 C.3       12 UNK         0.0203 
     72 H72        27.1950   17.4272    3.6389 H         1 UNK         0.0888 
     73 H73        27.5043   18.7617    4.7511 H         1 UNK         0.0888 
     74 H74        25.8539   18.4098    4.2349 H         1 UNK         0.0888 
     75 H75        28.3333   20.5703    3.7228 H         1 UNK         0.3017 
     76 H76        28.2802   20.9232    0.8748 H         1 UNK         0.0873 
     77 H77        29.1615   22.8467    3.0968 H         1 UNK         0.0745 
     78 H78        29.4435   23.0945    1.3876 H         1 UNK         0.0745 
     79 H79        32.9382   22.1779    3.1346 H         1 UNK         0.0705 
     80 H80        31.6126   23.1984    3.6320 H         1 UNK         0.0705 
     81 H81        33.4922   24.8886    3.1369 H         1 UNK         0.1334 
     82 H82        33.6723   26.2846   -0.9111 H         1 UNK         0.1417 
     83 H83        31.5526   22.6861    0.0087 H         1 UNK         0.1562 
     84 H84        31.5937   23.3918   -2.2201 H         1 UNK         0.0748 
     85 H85        33.1972   23.9785   -2.5764 H         1 UNK         0.0748 
     86 H86        29.7679   25.0707   -1.3821 H         1 UNK         0.0940 
     87 H87        29.1828   25.4680   -2.9712 H         1 UNK         0.0940 
     88 H88        30.0109   27.9170   -2.4661 H         1 UNK         0.0703 
     89 H89        27.5434   26.8042   -1.2464 H         1 UNK         0.3081 
     90 H90        25.7704   29.7915   -1.8512 H         1 UNK         0.0719 
     91 H91        25.5797   28.7757   -4.1271 H         1 UNK         0.0809 
     92 H92        25.4322   27.1732   -3.4195 H         1 UNK         0.0809 
     93 H93        24.1789   28.3845   -3.1447 H         1 UNK         0.0809 
     94 H94        24.9905   27.1596   -0.9847 H         1 UNK         0.2990 
     95 H95        26.2005   27.2728    2.2617 H         1 UNK         0.0690 
     96 H96        24.2923   28.8296    2.6891 H         1 UNK         0.0788 
     97 H97        23.8770   27.1821    3.1264 H         1 UNK         0.0788 
     98 H98        23.2614   27.8805    1.6267 H         1 UNK         0.0788 
     99 H99        24.1996   25.5971    1.2034 H         1 UNK         0.2993 
    100 H100       24.6612   23.5101    0.5882 H         1 UNK         0.0949 
    101 H101       24.9859   22.7526   -1.7761 H         1 UNK         0.0767 
    102 H102       24.5404   24.4493   -1.7257 H         1 UNK         0.0767 
    103 H103       26.2128   23.9946   -2.0240 H         1 UNK         0.0767 
    104 H104       27.2343   22.5093   -0.3515 H         1 UNK         0.3013 
    105 H105       28.7600   26.3654    0.5316 H         1 UNK         0.3121 
    106 H106       30.9964   27.2832    2.1662 H         1 UNK         0.0774 
    107 H107       28.4081   25.8007    2.8427 H         1 UNK         0.0815 
    108 H108       30.0098   25.0976    2.6056 H         1 UNK         0.0815 
    109 H109       29.7074   26.1412    3.9809 H         1 UNK         0.0815 
    110 H110       30.5016   29.5302    1.3344 H         1 UNK         0.2987 
    111 H111       28.1887   30.9665    2.1965 H         1 UNK         0.0949 
    112 H112       29.4001   32.9131    1.1953 H         1 UNK         0.0806 
    113 H113       30.8511   31.9317    1.0357 H         1 UNK         0.0806 
    114 H114       29.3973   31.5170    0.1314 H         1 UNK         0.0806 
    115 H115       28.6683   30.0425    4.4850 H         1 UNK         0.3010 
    116 H116       28.8854   30.4222    6.6743 H         1 UNK         0.0829 
    117 H117       28.5083   33.3596    5.8479 H         1 UNK         0.0813 
    118 H118       27.2332   32.1903    6.1506 H         1 UNK         0.0813 
    119 H119       28.2566   32.7109    7.4712 H         1 UNK         0.0813 
    120 H120       30.2480   33.4631    6.9850 H         1 UNK         0.3038 
    121 H121       32.5625   32.6024    8.3056 H         1 UNK         0.0769 
    122 H122       31.8913   35.3497    7.1169 H         1 UNK         0.0811 
    123 H123       33.1373   35.0409    8.3177 H         1 UNK         0.0811 
    124 H124       31.4520   34.7798    8.7285 H         1 UNK         0.0811 
    125 H125       32.1550   32.9459    4.8596 H         1 UNK         0.3204 
    126 H126       34.9484   33.3539    4.2029 H         1 UNK         0.0748 
    127 H127       34.2177   32.8191    1.9119 H         1 UNK         0.0771 
    128 H128       32.6833   32.1994    2.4974 H         1 UNK         0.0771 
    129 H129       33.0543   33.9187    2.6382 H         1 UNK         0.0771 
    130 H130       33.0307   30.5467    5.1369 H         1 UNK         0.2980 
    131 H131       35.2905   28.7188    4.4509 H         1 UNK         0.0545 
    132 H132       33.6105   28.5583    8.1497 H         1 UNK         0.3459 
    133 H133       32.8960   29.6420    6.9759 H         1 UNK         0.3459 
    134 H134       32.3016   28.1695    4.1558 H         1 UNK         0.0616 
    135 H135       33.5236   26.9292    4.0941 H         1 UNK         0.0616 
    136 H136       35.1872   27.1865    0.7625 H         1 UNK         0.0634 
    137 H137       35.2304   26.5694    2.3893 H         1 UNK         0.0634 
@<TRIPOS>BOND
     1    1    2 1    
     2    1   72 1    
     3    1   73 1    
     4    1   74 1    
     5    2    3 2    
     6    2    4 am   BACKBONE|DICT|INTERRES
     7    4    5 1    
     8    4   75 1    
     9    5    6 1    
    10    5   35 1    
    11    5   76 1    
    12    6    7 1    
    13    6   77 1    
    14    6   78 1    
    15    7    8 1    
    16    8    9 1    
    17    8   79 1    
    18    8   80 1    
    19    9   10 ar   
    20    9   14 ar   
    21   10   11 ar   
    22   10   81 1    
    23   11   12 ar   
    24   11   71 1    
    25   12   13 ar   
    26   12   82 1    
    27   13   14 ar   
    28   13   15 1    
    29   14   83 1    
    30   15   16 1    
    31   15   84 1    
    32   15   85 1    
    33   16   17 1    
    34   17   18 1    
    35   17   86 1    
    36   17   87 1    
    37   18   19 1    
    38   18   37 1    
    39   18   88 1    
    40   19   20 am   BACKBONE|DICT|INTERRES
    41   19   89 1    
    42   20   21 2    
    43   20   22 1    
    44   22   23 1    
    45   22   24 1    
    46   22   90 1    
    47   23   91 1    
    48   23   92 1    
    49   23   93 1    
    50   24   25 am   BACKBONE|DICT|INTERRES
    51   24   94 1    
    52   25   26 2    
    53   25   27 1    
    54   27   28 1    
    55   27   29 1    
    56   27   95 1    
    57   28   96 1    
    58   28   97 1    
    59   28   98 1    
    60   29   30 am   BACKBONE|DICT|INTERRES
    61   29   99 1    
    62   30   31 2    
    63   30   32 1    
    64   32   33 1    
    65   32   34 1    
    66   32  100 1    
    67   33  101 1    
    68   33  102 1    
    69   33  103 1    
    70   34   35 am   BACKBONE|DICT|INTERRES
    71   34  104 1    
    72   35   36 2    
    73   37   38 2    
    74   37   39 am   BACKBONE|DICT|INTERRES
    75   39   40 1    
    76   39  105 1    
    77   40   41 1    
    78   40   42 1    
    79   40  106 1    
    80   41  107 1    
    81   41  108 1    
    82   41  109 1    
    83   42   43 2    
    84   42   44 am   BACKBONE|DICT|INTERRES
    85   44   45 1    
    86   44  110 1    
    87   45   46 1    
    88   45   47 1    
    89   45  111 1    
    90   46  112 1    
    91   46  113 1    
    92   46  114 1    
    93   47   48 2    
    94   47   49 am   BACKBONE|DICT|INTERRES
    95   49   50 1    
    96   49  115 1    
    97   50   51 1    
    98   50   52 1    
    99   50  116 1    
   100   51  117 1    
   101   51  118 1    
   102   51  119 1    
   103   52   53 2    
   104   52   54 am   BACKBONE|DICT|INTERRES
   105   54   55 1    
   106   54  120 1    
   107   55   56 1    
   108   55   57 1    
   109   55  121 1    
   110   56  122 1    
   111   56  123 1    
   112   56  124 1    
   113   57   58 2    
   114   57   59 am   BACKBONE|DICT|INTERRES
   115   59   60 1    
   116   59  125 1    
   117   60   61 1    
   118   60   62 1    
   119   60  126 1    
   120   61  127 1    
   121   61  128 1    
   122   61  129 1    
   123   62   63 2    
   124   62   64 am   BACKBONE|DICT|INTERRES
   125   64   65 1    
   126   64  130 1    
   127   65   66 1    
   128   65   69 1    
   129   65  131 1    
   130   66   67 am   BACKBONE|DICT|INTERRES
   131   66   68 2    
   132   67  132 1    
   133   67  133 1    
   134   69   70 1    
   135   69  134 1    
   136   69  135 1    
   137   70   71 1    
   138   71  136 1    
   139   71  137 1    
@<TRIPOS>SUBSTRUCTURE
     1 UNK         1 GROUP             0       ****    0 ROOT    
