@<TRIPOS>MOLECULE
3R136
137   139    1
SMALL
USER_CHARGES


@<TRIPOS>ATOM
      1 CA         31.6055   20.4416   -3.7652 C.3       0 UNK        -0.1979 
      2 C          31.6713   21.5253   -2.6990 C.2       0 UNK         0.4864 
      3 O          32.7453   22.0769   -2.4526 O.2       0 UNK        -0.5359 
      4 N          30.5345   21.8263   -2.0591 N.am      1 UNK        -0.4318 
      5 CA         30.3984   22.8689   -1.0361 C.3       1 UNK         0.0824 
      6 C6         29.0983   22.7089   -0.2029 C.3       12 UNK        -0.0944 
      7 S7         28.7660   21.0124    0.3889 S.3       12 UNK        -0.2672 
      8 C8         30.1700   20.6904    1.5025 C.3       12 UNK         0.0333 
      9 C9         30.1924   21.6305    2.6986 C.ar      12 UNK        -0.0807 
     10 C10        31.2134   22.5740    2.8357 C.ar      12 UNK        -0.0894 
     11 C11        31.2564   23.4183    3.9488 C.ar      12 UNK        -0.0804 
     12 C12        30.2647   23.3176    4.9310 C.ar      12 UNK        -0.0824 
     13 C13        29.2335   22.3800    4.8000 C.ar      12 UNK        -0.0762 
     14 C14        29.2064   21.5381    3.6842 C.ar      12 UNK        -0.0782 
     15 C15        28.1557   22.2461    5.8662 C.3       12 UNK         0.0230 
     16 S16        26.6081   23.0691    5.3688 S.3       12 UNK        -0.2608 
     17 C17        26.9237   24.7943    5.8717 C.3       12 UNK        -0.0989 
     18 CA         27.4609   25.6840    4.7168 C.3       5 UNK         0.0716 
     19 N          26.5950   25.7058    3.5309 N.am      5 UNK        -0.4135 
     20 C          25.3426   26.1656    3.4274 C.2       4 UNK         0.5031 
     21 O          24.7313   26.7054    4.3510 O.2       4 UNK        -0.5229 
     22 CA         24.6809   26.0137    2.0387 C.3       4 UNK         0.0329 
     23 CB         23.2165   26.4914    2.0273 C.3       4 UNK        -0.2001 
     24 N          25.4150   26.7152    0.9771 N.am      4 UNK        -0.4303 
     25 C          26.5911   26.3371    0.4584 C.2       3 UNK         0.5044 
     26 O          27.1915   25.3203    0.8210 O.2       3 UNK        -0.5152 
     27 CA         27.2293   27.2492   -0.6032 C.3       3 UNK         0.0319 
     28 CB         27.0274   28.7495   -0.2982 C.3       3 UNK        -0.2001 
     29 N          28.6459   26.8982   -0.6532 N.am      3 UNK        -0.4354 
     30 C          29.5756   27.3046   -1.5239 C.2       2 UNK         0.4964 
     31 O          29.3763   28.1180   -2.4262 O.2       2 UNK        -0.5047 
     32 CA         30.9723   26.6742   -1.3629 C.3       2 UNK         0.0288 
     33 CB         31.8230   27.4920   -0.3762 C.3       2 UNK        -0.2113 
     34 N          30.9234   25.2726   -0.9243 N.am      2 UNK        -0.4145 
     35 C          30.4472   24.2708   -1.6797 C.2       1 UNK         0.5006 
     36 O          30.0234   24.4280   -2.8289 O.2       1 UNK        -0.5103 
     37 C          27.8886   27.0839    5.2167 C.2       5 UNK         0.5055 
     38 O          28.3956   27.1893    6.3335 O.2       5 UNK        -0.5220 
     39 N          27.7257   28.1229    4.3897 N.am      6 UNK        -0.4450 
     40 CA         28.1668   29.4922    4.6368 C.3       6 UNK         0.0367 
     41 CB         27.3364   30.1594    5.7527 C.3       6 UNK        -0.1929 
     42 C          28.0296   30.2552    3.3188 C.2       6 UNK         0.5070 
     43 O          26.9037   30.4685    2.8653 O.2       6 UNK        -0.5237 
     44 N          29.1628   30.6192    2.7154 N.am      7 UNK        -0.4739 
     45 CA         29.2501   31.4298    1.5019 C.3       7 UNK         0.0276 
     46 CB         30.0655   30.6461    0.4556 C.3       7 UNK        -0.1927 
     47 C          29.8937   32.7845    1.8480 C.2       7 UNK         0.5013 
     48 O          29.8896   33.1934    3.0128 O.2       7 UNK        -0.5193 
     49 N          30.4457   33.4657    0.8347 N.am      8 UNK        -0.4253 
     50 CA         31.2695   34.6644    0.9933 C.3       8 UNK         0.0242 
     51 CB         31.4362   35.3513   -0.3739 C.3       8 UNK        -0.2000 
     52 C          32.6251   34.2743    1.6055 C.2       8 UNK         0.4948 
     53 O          33.4988   33.7873    0.8846 O.2       8 UNK        -0.5275 
     54 N          32.7399   34.4189    2.9328 N.am      9 UNK        -0.4246 
     55 CA         33.8556   34.0361    3.8126 C.3       9 UNK         0.0261 
     56 CB         35.1602   34.7654    3.4351 C.3       9 UNK        -0.1959 
     57 C          34.0810   32.5163    3.9347 C.2       9 UNK         0.5033 
     58 O          34.2662   32.0269    5.0512 O.2       9 UNK        -0.5390 
     59 N          34.0579   31.7947    2.8066 N.am      10 UNK        -0.4215 
     60 CA         34.1879   30.3391    2.7264 C.3       10 UNK         0.0240 
     61 CB         34.2317   29.9026    1.2537 C.3       10 UNK        -0.1982 
     62 C          33.0630   29.6187    3.4889 C.2       10 UNK         0.4970 
     63 O          31.8981   30.0080    3.3794 O.2       10 UNK        -0.4916 
     64 N          33.4537   28.6010    4.2629 N.am      11 UNK        -0.4279 
     65 CA         32.6085   27.8301    5.1915 C.3       11 UNK         0.1003 
     66 C          32.1107   28.6251    6.4386 C.2       11 UNK         0.5709 
     67 N          32.4914   29.8826    6.6382 N.am      11 UNK        -0.7358 
     68 O          31.4109   28.0710    7.2809 O.2       11 UNK        -0.4999 
     69 C69        31.4655   27.0372    4.4891 C.3       12 UNK        -0.0954 
     70 S70        32.0785   25.9433    3.1651 S.3       12 UNK        -0.2268 
     71 C71        32.3998   24.4106    4.0905 C.3       12 UNK         0.0203 
     72 H72        31.9027   20.8479   -4.7315 H         1 UNK         0.0888 
     73 H73        32.2836   19.6264   -3.5141 H         1 UNK         0.0888 
     74 H74        30.6017   20.0288   -3.8650 H         1 UNK         0.0888 
     75 H75        29.6791   21.3505   -2.3074 H         1 UNK         0.3017 
     76 H76        31.2524   22.7829   -0.3616 H         1 UNK         0.0873 
     77 H77        29.1179   23.3747    0.6619 H         1 UNK         0.0745 
     78 H78        28.2285   23.0123   -0.7898 H         1 UNK         0.0745 
     79 H79        30.0998   19.6628    1.8619 H         1 UNK         0.0705 
     80 H80        31.1019   20.7474    0.9383 H         1 UNK         0.0705 
     81 H81        31.9861   22.6458    2.0826 H         1 UNK         0.1334 
     82 H82        30.2968   23.9656    5.7964 H         1 UNK         0.1417 
     83 H83        28.4136   20.8093    3.5803 H         1 UNK         0.1562 
     84 H84        28.5030   22.6335    6.8252 H         1 UNK         0.0748 
     85 H85        27.9464   21.1882    6.0320 H         1 UNK         0.0748 
     86 H86        27.6178   24.7852    6.7138 H         1 UNK         0.0940 
     87 H87        25.9937   25.2087    6.2645 H         1 UNK         0.0940 
     88 H88        28.3882   25.2330    4.3650 H         1 UNK         0.0703 
     89 H89        27.0013   25.3156    2.6833 H         1 UNK         0.3081 
     90 H90        24.6796   24.9467    1.8049 H         1 UNK         0.0719 
     91 H91        23.1374   27.5579    2.2426 H         1 UNK         0.0809 
     92 H92        22.7457   26.3072    1.0615 H         1 UNK         0.0809 
     93 H93        22.6270   25.9627    2.7778 H         1 UNK         0.0809 
     94 H94        25.0051   27.5781    0.6497 H         1 UNK         0.2990 
     95 H95        26.7797   27.0083   -1.5680 H         1 UNK         0.0690 
     96 H96        27.5380   29.3848   -1.0210 H         1 UNK         0.0788 
     97 H97        27.4029   29.0050    0.6910 H         1 UNK         0.0788 
     98 H98        25.9746   29.0301   -0.3340 H         1 UNK         0.0788 
     99 H99        28.8910   26.1823    0.0202 H         1 UNK         0.2993 
    100 H100       31.4605   26.7032   -2.3397 H         1 UNK         0.0949 
    101 H101       31.9398   28.5185   -0.7256 H         1 UNK         0.0767 
    102 H102       31.3693   27.5357    0.6149 H         1 UNK         0.0767 
    103 H103       32.8237   27.0730   -0.2692 H         1 UNK         0.0767 
    104 H104       31.2572   25.0769    0.0088 H         1 UNK         0.3013 
    105 H105       27.2812   27.9706    3.4949 H         1 UNK         0.3121 
    106 H106       29.2167   29.4788    4.9383 H         1 UNK         0.0774 
    107 H107       27.6080   31.2100    5.8627 H         1 UNK         0.0815 
    108 H108       26.2677   30.1178    5.5388 H         1 UNK         0.0815 
    109 H109       27.5028   29.6833    6.7187 H         1 UNK         0.0815 
    110 H110       30.0591   30.4187    3.1558 H         1 UNK         0.2987 
    111 H111       28.2559   31.6306    1.0969 H         1 UNK         0.0949 
    112 H112       29.9923   31.0957   -0.5350 H         1 UNK         0.0806 
    113 H113       31.1192   30.5999    0.7262 H         1 UNK         0.0806 
    114 H114       29.7112   29.6209    0.3654 H         1 UNK         0.0806 
    115 H115       30.4225   33.0580   -0.0885 H         1 UNK         0.3010 
    116 H116       30.7611   35.3620    1.6628 H         1 UNK         0.0829 
    117 H117       30.4745   35.6677   -0.7783 H         1 UNK         0.0813 
    118 H118       32.0596   36.2421   -0.2871 H         1 UNK         0.0813 
    119 H119       31.9078   34.6947   -1.1065 H         1 UNK         0.0813 
    120 H120       31.9142   34.7376    3.4236 H         1 UNK         0.3038 
    121 H121       33.5692   34.3832    4.8068 H         1 UNK         0.0769 
    122 H122       35.5333   34.4617    2.4567 H         1 UNK         0.0811 
    123 H123       35.9468   34.5512    4.1599 H         1 UNK         0.0811 
    124 H124       35.0199   35.8462    3.4197 H         1 UNK         0.0811 
    125 H125       33.8908   32.3020    1.9405 H         1 UNK         0.3204 
    126 H126       35.1435   30.0769    3.1852 H         1 UNK         0.0748 
    127 H127       35.1016   30.3184    0.7451 H         1 UNK         0.0771 
    128 H128       34.2946   28.8169    1.1679 H         1 UNK         0.0771 
    129 H129       33.3456   30.2231    0.7082 H         1 UNK         0.0771 
    130 H130       34.4352   28.3668    4.2890 H         1 UNK         0.2980 
    131 H131       33.2854   27.0877    5.6152 H         1 UNK         0.0545 
    132 H132       32.1744   30.3614    7.4657 H         1 UNK         0.3459 
    133 H133       33.0815   30.3668    5.9746 H         1 UNK         0.3459 
    134 H134       30.9135   26.4318    5.2095 H         1 UNK         0.0616 
    135 H135       30.7379   27.7204    4.0508 H         1 UNK         0.0616 
    136 H136       33.3185   23.9634    3.7080 H         1 UNK         0.0634 
    137 H137       32.5914   24.6327    5.1413 H         1 UNK         0.0634 
@<TRIPOS>BOND
     1    1    2 1    
     2    1   72 1    
     3    1   73 1    
     4    1   74 1    
     5    2    3 2    
     6    2    4 am   BACKBONE|DICT|INTERRES
     7    4    5 1    
     8    4   75 1    
     9    5    6 1    
    10    5   35 1    
    11    5   76 1    
    12    6    7 1    
    13    6   77 1    
    14    6   78 1    
    15    7    8 1    
    16    8    9 1    
    17    8   79 1    
    18    8   80 1    
    19    9   10 ar   
    20    9   14 ar   
    21   10   11 ar   
    22   10   81 1    
    23   11   12 ar   
    24   11   71 1    
    25   12   13 ar   
    26   12   82 1    
    27   13   14 ar   
    28   13   15 1    
    29   14   83 1    
    30   15   16 1    
    31   15   84 1    
    32   15   85 1    
    33   16   17 1    
    34   17   18 1    
    35   17   86 1    
    36   17   87 1    
    37   18   19 1    
    38   18   37 1    
    39   18   88 1    
    40   19   20 am   BACKBONE|DICT|INTERRES
    41   19   89 1    
    42   20   21 2    
    43   20   22 1    
    44   22   23 1    
    45   22   24 1    
    46   22   90 1    
    47   23   91 1    
    48   23   92 1    
    49   23   93 1    
    50   24   25 am   BACKBONE|DICT|INTERRES
    51   24   94 1    
    52   25   26 2    
    53   25   27 1    
    54   27   28 1    
    55   27   29 1    
    56   27   95 1    
    57   28   96 1    
    58   28   97 1    
    59   28   98 1    
    60   29   30 am   BACKBONE|DICT|INTERRES
    61   29   99 1    
    62   30   31 2    
    63   30   32 1    
    64   32   33 1    
    65   32   34 1    
    66   32  100 1    
    67   33  101 1    
    68   33  102 1    
    69   33  103 1    
    70   34   35 am   BACKBONE|DICT|INTERRES
    71   34  104 1    
    72   35   36 2    
    73   37   38 2    
    74   37   39 am   BACKBONE|DICT|INTERRES
    75   39   40 1    
    76   39  105 1    
    77   40   41 1    
    78   40   42 1    
    79   40  106 1    
    80   41  107 1    
    81   41  108 1    
    82   41  109 1    
    83   42   43 2    
    84   42   44 am   BACKBONE|DICT|INTERRES
    85   44   45 1    
    86   44  110 1    
    87   45   46 1    
    88   45   47 1    
    89   45  111 1    
    90   46  112 1    
    91   46  113 1    
    92   46  114 1    
    93   47   48 2    
    94   47   49 am   BACKBONE|DICT|INTERRES
    95   49   50 1    
    96   49  115 1    
    97   50   51 1    
    98   50   52 1    
    99   50  116 1    
   100   51  117 1    
   101   51  118 1    
   102   51  119 1    
   103   52   53 2    
   104   52   54 am   BACKBONE|DICT|INTERRES
   105   54   55 1    
   106   54  120 1    
   107   55   56 1    
   108   55   57 1    
   109   55  121 1    
   110   56  122 1    
   111   56  123 1    
   112   56  124 1    
   113   57   58 2    
   114   57   59 am   BACKBONE|DICT|INTERRES
   115   59   60 1    
   116   59  125 1    
   117   60   61 1    
   118   60   62 1    
   119   60  126 1    
   120   61  127 1    
   121   61  128 1    
   122   61  129 1    
   123   62   63 2    
   124   62   64 am   BACKBONE|DICT|INTERRES
   125   64   65 1    
   126   64  130 1    
   127   65   66 1    
   128   65   69 1    
   129   65  131 1    
   130   66   67 am   BACKBONE|DICT|INTERRES
   131   66   68 2    
   132   67  132 1    
   133   67  133 1    
   134   69   70 1    
   135   69  134 1    
   136   69  135 1    
   137   70   71 1    
   138   71  136 1    
   139   71  137 1    
@<TRIPOS>SUBSTRUCTURE
     1 UNK         1 GROUP             0       ****    0 ROOT    
