@<TRIPOS>MOLECULE
3R136
137   139    1
SMALL
USER_CHARGES


@<TRIPOS>ATOM
      1 CA         26.7471   21.6831    4.1942 C.3       0 UNK        -0.1979 
      2 C          27.1360   21.2057    2.8036 C.2       0 UNK         0.4864 
      3 O          26.5360   20.2605    2.2885 O.2       0 UNK        -0.5359 
      4 N          28.1445   21.8532    2.2077 N.am      1 UNK        -0.4318 
      5 CA         28.6485   21.5788    0.8576 C.3       1 UNK         0.0824 
      6 C6         30.1985   21.6805    0.7855 C.3       12 UNK        -0.0944 
      7 S7         31.0176   20.5153    1.9265 S.3       12 UNK        -0.2672 
      8 C8         32.6705   21.2702    2.1186 C.3       12 UNK         0.0333 
      9 C9         32.6569   22.6807    2.7060 C.ar      12 UNK        -0.0807 
     10 C10        33.5529   23.6386    2.2177 C.ar      12 UNK        -0.0894 
     11 C11        33.5658   24.9351    2.7411 C.ar      12 UNK        -0.0804 
     12 C12        32.6596   25.2783    3.7458 C.ar      12 UNK        -0.0824 
     13 C13        31.7529   24.3373    4.2385 C.ar      12 UNK        -0.0762 
     14 C14        31.7743   23.0336    3.7344 C.ar      12 UNK        -0.0782 
     15 C15        30.7472   24.7376    5.3087 C.3       12 UNK         0.0230 
     16 S16        29.0161   24.5080    4.7795 S.3       12 UNK        -0.2608 
     17 C17        28.9481   25.3388    3.1534 C.3       12 UNK        -0.0989 
     18 CA         29.1200   26.8778    3.1911 C.3       5 UNK         0.0716 
     19 N          29.2573   27.4312    1.8417 N.am      5 UNK        -0.4135 
     20 C          29.6433   28.6843    1.5560 C.2       4 UNK         0.5031 
     21 O          29.9908   29.5013    2.4074 O.2       4 UNK        -0.5229 
     22 CA         29.6031   29.1236    0.0794 C.3       4 UNK         0.0329 
     23 CB         30.9433   28.8172   -0.6032 C.3       4 UNK        -0.2001 
     24 N          28.5229   28.5047   -0.6903 N.am      4 UNK        -0.4303 
     25 C          27.2160   28.5991   -0.4070 C.2       3 UNK         0.5044 
     26 O          26.7625   29.3249    0.4768 O.2       3 UNK        -0.5152 
     27 CA         26.2586   27.6799   -1.1929 C.3       3 UNK         0.0319 
     28 CB         25.5927   28.4583   -2.3381 C.3       3 UNK        -0.2001 
     29 N          26.8719   26.4536   -1.7298 N.am      3 UNK        -0.4354 
     30 C          27.5429   25.5378   -1.0148 C.2       2 UNK         0.4964 
     31 O          27.7603   25.6479    0.1940 O.2       2 UNK        -0.5047 
     32 CA         28.1297   24.3482   -1.7965 C.3       2 UNK         0.0288 
     33 CB         29.2718   24.8180   -2.7155 C.3       2 UNK        -0.2113 
     34 N          28.6557   23.3150   -0.9004 N.am      2 UNK        -0.4145 
     35 C          27.9099   22.4969   -0.1439 C.2       1 UNK         0.5006 
     36 O          26.6794   22.4499   -0.2185 O.2       1 UNK        -0.5103 
     37 C          27.9835   27.5834    3.9548 C.2       5 UNK         0.5055 
     38 O          28.2094   28.0631    5.0674 O.2       5 UNK        -0.5220 
     39 N          26.8099   27.6924    3.3111 N.am      6 UNK        -0.4450 
     40 CA         25.6242   28.3882    3.8253 C.3       6 UNK         0.0367 
     41 CB         24.4352   28.1448    2.8823 C.3       6 UNK        -0.1929 
     42 C          25.8469   29.8959    4.0453 C.2       6 UNK         0.5070 
     43 O          25.2490   30.4694    4.9548 O.2       6 UNK        -0.5237 
     44 N          26.7495   30.4955    3.2582 N.am      7 UNK        -0.4739 
     45 CA         27.2500   31.8658    3.4045 C.3       7 UNK         0.0276 
     46 CB         27.7668   32.3462    2.0367 C.3       7 UNK        -0.1927 
     47 C          28.3185   32.0273    4.5125 C.2       7 UNK         0.5013 
     48 O          29.0641   33.0068    4.4832 O.2       7 UNK        -0.5193 
     49 N          28.3697   31.0858    5.4674 N.am      8 UNK        -0.4253 
     50 CA         29.2713   31.0083    6.6221 C.3       8 UNK         0.0242 
     51 CB         29.1113   32.2305    7.5530 C.3       8 UNK        -0.2000 
     52 C          30.7280   30.7336    6.2106 C.2       8 UNK         0.4948 
     53 O          31.6416   31.4219    6.6697 O.2       8 UNK        -0.5275 
     54 N          30.9035   29.7087    5.3632 N.am      9 UNK        -0.4246 
     55 CA         32.1748   29.1991    4.8322 C.3       9 UNK         0.0261 
     56 CB         33.0059   28.5296    5.9474 C.3       9 UNK        -0.1959 
     57 C          32.9678   30.2523    4.0362 C.2       9 UNK         0.5033 
     58 O          34.1793   30.3911    4.2153 O.2       9 UNK        -0.5390 
     59 N          32.2741   30.9500    3.1303 N.am      10 UNK        -0.4215 
     60 CA         32.8174   31.9746    2.2338 C.3       10 UNK         0.0240 
     61 CB         31.6922   32.9659    1.8832 C.3       10 UNK        -0.1982 
     62 C          33.4739   31.3646    0.9771 C.2       10 UNK         0.4970 
     63 O          33.2886   31.8832   -0.1255 O.2       10 UNK        -0.4916 
     64 N          34.1990   30.2549    1.1536 N.am      11 UNK        -0.4279 
     65 CA         34.8878   29.5124    0.0910 C.3       11 UNK         0.1003 
     66 C          36.1303   30.2709   -0.4494 C.2       11 UNK         0.5709 
     67 N          36.4665   30.0832   -1.7184 N.am      11 UNK        -0.7358 
     68 O          36.8124   30.9936    0.2757 O.2       11 UNK        -0.4999 
     69 C69        35.2681   28.0838    0.5570 C.3       12 UNK        -0.0954 
     70 S70        33.8139   27.0835    1.0209 S.3       12 UNK        -0.2268 
     71 C71        34.5662   25.9641    2.2378 C.3       12 UNK         0.0203 
     72 H72        25.9781   21.0417    4.6244 H         1 UNK         0.0888 
     73 H73        27.6096   21.6690    4.8604 H         1 UNK         0.0888 
     74 H74        26.3572   22.7000    4.1531 H         1 UNK         0.0888 
     75 H75        28.5859   22.6212    2.6919 H         1 UNK         0.3017 
     76 H76        28.3833   20.5575    0.5757 H         1 UNK         0.0873 
     77 H77        30.5564   21.4529   -0.2205 H         1 UNK         0.0745 
     78 H78        30.5258   22.6955    1.0171 H         1 UNK         0.0745 
     79 H79        33.2718   20.6313    2.7665 H         1 UNK         0.0705 
     80 H80        33.1598   21.2688    1.1432 H         1 UNK         0.0705 
     81 H81        34.2487   23.3740    1.4329 H         1 UNK         0.1334 
     82 H82        32.6649   26.2816    4.1423 H         1 UNK         0.1417 
     83 H83        31.0816   22.3022    4.1277 H         1 UNK         0.1562 
     84 H84        30.8862   25.7778    5.6070 H         1 UNK         0.0748 
     85 H85        30.9235   24.1393    6.2035 H         1 UNK         0.0748 
     86 H86        27.9931   25.0748    2.6965 H         1 UNK         0.0940 
     87 H87        29.7089   24.8979    2.5075 H         1 UNK         0.0940 
     88 H88        30.0500   27.0944    3.7165 H         1 UNK         0.0703 
     89 H89        28.9220   26.8374    1.0877 H         1 UNK         0.3081 
     90 H90        29.4472   30.2037    0.0610 H         1 UNK         0.0719 
     91 H91        31.7698   29.2490   -0.0412 H         1 UNK         0.0809 
     92 H92        31.1278   27.7444   -0.6742 H         1 UNK         0.0809 
     93 H93        30.9845   29.2356   -1.6089 H         1 UNK         0.0809 
     94 H94        28.7965   27.8910   -1.4430 H         1 UNK         0.2990 
     95 H95        25.4787   27.3679   -0.4954 H         1 UNK         0.0690 
     96 H96        24.8252   27.8617   -2.8315 H         1 UNK         0.0788 
     97 H97        26.3180   28.7661   -3.0925 H         1 UNK         0.0788 
     98 H98        25.1068   29.3616   -1.9656 H         1 UNK         0.0788 
     99 H99        26.7549   26.2965   -2.7210 H         1 UNK         0.2993 
    100 H100       27.3342   23.9113   -2.4043 H         1 UNK         0.0949 
    101 H101       29.6984   23.9838   -3.2733 H         1 UNK         0.0767 
    102 H102       28.9208   25.5435   -3.4504 H         1 UNK         0.0767 
    103 H103       30.0780   25.2889   -2.1509 H         1 UNK         0.0767 
    104 H104       29.6558   23.3099   -0.7694 H         1 UNK         0.3013 
    105 H105       26.7359   27.3039    2.3817 H         1 UNK         0.3121 
    106 H106       25.3844   27.9504    4.7966 H         1 UNK         0.0774 
    107 H107       24.6127   28.5590    1.8895 H         1 UNK         0.0815 
    108 H108       23.5299   28.6132    3.2710 H         1 UNK         0.0815 
    109 H109       24.2255   27.0809    2.7714 H         1 UNK         0.0815 
    110 H110       27.1392   29.9558    2.4936 H         1 UNK         0.2987 
    111 H111       26.4125   32.5068    3.6874 H         1 UNK         0.0949 
    112 H112       28.6374   31.7746    1.7186 H         1 UNK         0.0806 
    113 H113       27.0024   32.2477    1.2656 H         1 UNK         0.0806 
    114 H114       28.0592   33.3965    2.0691 H         1 UNK         0.0806 
    115 H115       27.7437   30.2970    5.3648 H         1 UNK         0.3010 
    116 H116       28.9523   30.1314    7.1880 H         1 UNK         0.0829 
    117 H117       29.4682   33.1493    7.0869 H         1 UNK         0.0813 
    118 H118       28.0697   32.3799    7.8370 H         1 UNK         0.0813 
    119 H119       29.6815   32.0944    8.4727 H         1 UNK         0.0813 
    120 H120       30.0682   29.2402    5.0304 H         1 UNK         0.3038 
    121 H121       31.9136   28.4295    4.1075 H         1 UNK         0.0769 
    122 H122       33.8996   28.0556    5.5394 H         1 UNK         0.0811 
    123 H123       33.3361   29.2528    6.6937 H         1 UNK         0.0811 
    124 H124       32.4342   27.7564    6.4602 H         1 UNK         0.0811 
    125 H125       31.3072   30.6699    2.9713 H         1 UNK         0.3204 
    126 H126       33.5957   32.5274    2.7638 H         1 UNK         0.0748 
    127 H127       32.0726   33.8017    1.2947 H         1 UNK         0.0771 
    128 H128       30.9043   32.4870    1.3013 H         1 UNK         0.0771 
    129 H129       31.2382   33.3852    2.7814 H         1 UNK         0.0771 
    130 H130       34.3526   29.9329    2.1001 H         1 UNK         0.2980 
    131 H131       34.1852   29.4136   -0.7390 H         1 UNK         0.0545 
    132 H132       35.9230   29.4834   -2.3196 H         1 UNK         0.3459 
    133 H133       37.2784   30.5553   -2.0845 H         1 UNK         0.3459 
    134 H134       35.7938   27.5478   -0.2355 H         1 UNK         0.0616 
    135 H135       35.9568   28.1355    1.4026 H         1 UNK         0.0616 
    136 H136       35.4265   25.4675    1.7862 H         1 UNK         0.0634 
    137 H137       34.9491   26.5474    3.0768 H         1 UNK         0.0634 
@<TRIPOS>BOND
     1    1    2 1    
     2    1   72 1    
     3    1   73 1    
     4    1   74 1    
     5    2    3 2    
     6    2    4 am   BACKBONE|DICT|INTERRES
     7    4    5 1    
     8    4   75 1    
     9    5    6 1    
    10    5   35 1    
    11    5   76 1    
    12    6    7 1    
    13    6   77 1    
    14    6   78 1    
    15    7    8 1    
    16    8    9 1    
    17    8   79 1    
    18    8   80 1    
    19    9   10 ar   
    20    9   14 ar   
    21   10   11 ar   
    22   10   81 1    
    23   11   12 ar   
    24   11   71 1    
    25   12   13 ar   
    26   12   82 1    
    27   13   14 ar   
    28   13   15 1    
    29   14   83 1    
    30   15   16 1    
    31   15   84 1    
    32   15   85 1    
    33   16   17 1    
    34   17   18 1    
    35   17   86 1    
    36   17   87 1    
    37   18   19 1    
    38   18   37 1    
    39   18   88 1    
    40   19   20 am   BACKBONE|DICT|INTERRES
    41   19   89 1    
    42   20   21 2    
    43   20   22 1    
    44   22   23 1    
    45   22   24 1    
    46   22   90 1    
    47   23   91 1    
    48   23   92 1    
    49   23   93 1    
    50   24   25 am   BACKBONE|DICT|INTERRES
    51   24   94 1    
    52   25   26 2    
    53   25   27 1    
    54   27   28 1    
    55   27   29 1    
    56   27   95 1    
    57   28   96 1    
    58   28   97 1    
    59   28   98 1    
    60   29   30 am   BACKBONE|DICT|INTERRES
    61   29   99 1    
    62   30   31 2    
    63   30   32 1    
    64   32   33 1    
    65   32   34 1    
    66   32  100 1    
    67   33  101 1    
    68   33  102 1    
    69   33  103 1    
    70   34   35 am   BACKBONE|DICT|INTERRES
    71   34  104 1    
    72   35   36 2    
    73   37   38 2    
    74   37   39 am   BACKBONE|DICT|INTERRES
    75   39   40 1    
    76   39  105 1    
    77   40   41 1    
    78   40   42 1    
    79   40  106 1    
    80   41  107 1    
    81   41  108 1    
    82   41  109 1    
    83   42   43 2    
    84   42   44 am   BACKBONE|DICT|INTERRES
    85   44   45 1    
    86   44  110 1    
    87   45   46 1    
    88   45   47 1    
    89   45  111 1    
    90   46  112 1    
    91   46  113 1    
    92   46  114 1    
    93   47   48 2    
    94   47   49 am   BACKBONE|DICT|INTERRES
    95   49   50 1    
    96   49  115 1    
    97   50   51 1    
    98   50   52 1    
    99   50  116 1    
   100   51  117 1    
   101   51  118 1    
   102   51  119 1    
   103   52   53 2    
   104   52   54 am   BACKBONE|DICT|INTERRES
   105   54   55 1    
   106   54  120 1    
   107   55   56 1    
   108   55   57 1    
   109   55  121 1    
   110   56  122 1    
   111   56  123 1    
   112   56  124 1    
   113   57   58 2    
   114   57   59 am   BACKBONE|DICT|INTERRES
   115   59   60 1    
   116   59  125 1    
   117   60   61 1    
   118   60   62 1    
   119   60  126 1    
   120   61  127 1    
   121   61  128 1    
   122   61  129 1    
   123   62   63 2    
   124   62   64 am   BACKBONE|DICT|INTERRES
   125   64   65 1    
   126   64  130 1    
   127   65   66 1    
   128   65   69 1    
   129   65  131 1    
   130   66   67 am   BACKBONE|DICT|INTERRES
   131   66   68 2    
   132   67  132 1    
   133   67  133 1    
   134   69   70 1    
   135   69  134 1    
   136   69  135 1    
   137   70   71 1    
   138   71  136 1    
   139   71  137 1    
@<TRIPOS>SUBSTRUCTURE
     1 UNK         1 GROUP             0       ****    0 ROOT    
