@<TRIPOS>MOLECULE
3R136
137   139    1
SMALL
USER_CHARGES


@<TRIPOS>ATOM
      1 CA         26.0725   19.4627    2.1187 C.3       0 UNK        -0.1979 
      2 C          26.5454   20.5952    1.2199 C.2       0 UNK         0.4864 
      3 O          25.7212   21.3382    0.6849 O.2       0 UNK        -0.5359 
      4 N          27.8678   20.7423    1.0572 N.am      1 UNK        -0.4318 
      5 CA         28.5068   21.7694    0.2232 C.3       1 UNK         0.0824 
      6 C6         29.9796   21.4183   -0.1178 C.3       12 UNK        -0.0944 
      7 S7         31.0357   21.0297    1.3261 S.3       12 UNK        -0.2672 
      8 C8         32.4721   22.1277    1.0822 C.3       12 UNK         0.0333 
      9 C9         32.3021   23.4422    1.8284 C.ar      12 UNK        -0.0807 
     10 C10        32.8272   23.5922    3.1168 C.ar      12 UNK        -0.0894 
     11 C11        32.6445   24.7829    3.8282 C.ar      12 UNK        -0.0804 
     12 C12        31.9145   25.8210    3.2411 C.ar      12 UNK        -0.0824 
     13 C13        31.3899   25.6836    1.9541 C.ar      12 UNK        -0.0762 
     14 C14        31.6041   24.5011    1.2427 C.ar      12 UNK        -0.0782 
     15 C15        30.5164   26.7805    1.3769 C.3       12 UNK         0.0230 
     16 S16        31.4758   28.0952    0.5731 S.3       12 UNK        -0.2608 
     17 C17        30.2728   29.4646    0.6833 C.3       12 UNK        -0.0989 
     18 CA         29.3842   29.6534   -0.5738 C.3       5 UNK         0.0716 
     19 N          28.7159   28.4079   -0.9588 N.am      5 UNK        -0.4135 
     20 C          28.3645   28.0782   -2.2066 C.2       4 UNK         0.5031 
     21 O          28.5779   28.7868   -3.1907 O.2       4 UNK        -0.5229 
     22 CA         27.6370   26.7345   -2.3887 C.3       4 UNK         0.0329 
     23 CB         28.6286   25.6544   -2.8505 C.3       4 UNK        -0.2001 
     24 N          26.9228   26.2658   -1.1925 N.am      4 UNK        -0.4303 
     25 C          25.8601   26.8826   -0.6498 C.2       3 UNK         0.5044 
     26 O          25.4404   27.9721   -1.0413 O.2       3 UNK        -0.5152 
     27 CA         25.1424   26.1916    0.5256 C.3       3 UNK         0.0319 
     28 CB         23.9289   25.3986    0.0155 C.3       3 UNK        -0.2001 
     29 N          25.9984   25.3009    1.3112 N.am      3 UNK        -0.4354 
     30 C          27.0109   25.7115    2.0864 C.2       2 UNK         0.4964 
     31 O          27.3154   26.8949    2.2369 O.2       2 UNK        -0.5047 
     32 CA         27.8456   24.6217    2.7883 C.3       2 UNK         0.0288 
     33 CB         27.2625   24.3185    4.1779 C.3       2 UNK        -0.2113 
     34 N          27.9936   23.3588    2.0516 N.am      2 UNK        -0.4145 
     35 C          28.3644   23.2063    0.7695 C.2       1 UNK         0.5006 
     36 O          28.5716   24.1478    0.0043 O.2       1 UNK        -0.5103 
     37 C          28.3724   30.7937   -0.3168 C.2       5 UNK         0.5055 
     38 O          28.8048   31.9114   -0.0344 O.2       5 UNK        -0.5220 
     39 N          27.0615   30.4934   -0.3296 N.am      6 UNK        -0.4450 
     40 CA         25.9251   31.3042    0.1367 C.3       6 UNK         0.0367 
     41 CB         25.8488   32.6817   -0.5513 C.3       6 UNK        -0.1929 
     42 C          25.8695   31.4239    1.6717 C.2       6 UNK         0.5070 
     43 O          24.8099   31.1936    2.2547 O.2       6 UNK        -0.5237 
     44 N          27.0087   31.7287    2.3005 N.am      7 UNK        -0.4739 
     45 CA         27.2474   31.6339    3.7362 C.3       7 UNK         0.0276 
     46 CB         27.2898   33.0421    4.3518 C.3       7 UNK        -0.1927 
     47 C          28.5867   30.9133    3.9118 C.2       7 UNK         0.5013 
     48 O          29.5787   31.3339    3.3111 O.2       7 UNK        -0.5193 
     49 N          28.6114   29.8452    4.7183 N.am      8 UNK        -0.4253 
     50 CA         29.7598   28.9491    4.9135 C.3       8 UNK         0.0242 
     51 CB         29.2502   27.5951    5.4417 C.3       8 UNK        -0.2000 
     52 C          30.8923   29.5408    5.7806 C.2       8 UNK         0.4948 
     53 O          31.4224   28.8536    6.6538 O.2       8 UNK        -0.5275 
     54 N          31.2514   30.8017    5.5187 N.am      9 UNK        -0.4246 
     55 CA         32.3761   31.5049    6.1369 C.3       9 UNK         0.0261 
     56 CB         32.0051   32.9872    6.3067 C.3       9 UNK        -0.1959 
     57 C          33.6649   31.3710    5.3085 C.2       9 UNK         0.5033 
     58 O          34.7541   31.4835    5.8727 O.2       9 UNK        -0.5390 
     59 N          33.5301   31.1396    3.9927 N.am      10 UNK        -0.4215 
     60 CA         34.6262   31.1060    3.0163 C.3       10 UNK         0.0240 
     61 CB         34.0385   30.9721    1.6027 C.3       10 UNK        -0.1982 
     62 C          35.6814   30.0126    3.2644 C.2       10 UNK         0.4970 
     63 O          36.8380   30.2017    2.8857 O.2       10 UNK        -0.4916 
     64 N          35.2756   28.9071    3.8997 N.am      11 UNK        -0.4279 
     65 CA         36.1639   27.8279    4.3545 C.3       11 UNK         0.1003 
     66 C          36.9879   28.1586    5.6360 C.2       11 UNK         0.5709 
     67 N          36.7706   29.2844    6.3083 N.am      11 UNK        -0.7358 
     68 O          37.8603   27.3821    6.0186 O.2       11 UNK        -0.4999 
     69 C69        35.4085   26.4765    4.4608 C.3       12 UNK        -0.0954 
     70 S70        33.9761   26.5264    5.5901 S.3       12 UNK        -0.2268 
     71 C71        33.1943   24.9145    5.2464 C.3       12 UNK         0.0203 
     72 H72        25.4380   18.7783    1.5562 H         1 UNK         0.0888 
     73 H73        26.9058   18.8925    2.5290 H         1 UNK         0.0888 
     74 H74        25.4915   19.8608    2.9501 H         1 UNK         0.0888 
     75 H75        28.5055   20.1117    1.5241 H         1 UNK         0.3017 
     76 H76        27.9648   21.7775   -0.7253 H         1 UNK         0.0873 
     77 H77        30.4322   22.2116   -0.7153 H         1 UNK         0.0745 
     78 H78        29.9908   20.5390   -0.7637 H         1 UNK         0.0745 
     79 H79        32.6427   22.3081    0.0199 H         1 UNK         0.0705 
     80 H80        33.3640   21.6129    1.4427 H         1 UNK         0.0705 
     81 H81        33.3658   22.7723    3.5722 H         1 UNK         0.1334 
     82 H82        31.7429   26.7342    3.7925 H         1 UNK         0.1417 
     83 H83        31.1906   24.3903    0.2498 H         1 UNK         0.1562 
     84 H84        29.9146   27.1968    2.1835 H         1 UNK         0.0748 
     85 H85        29.8139   26.3632    0.6561 H         1 UNK         0.0748 
     86 H86        30.8428   30.3762    0.8755 H         1 UNK         0.0940 
     87 H87        29.6504   29.3234    1.5675 H         1 UNK         0.0940 
     88 H88        30.0295   29.9753   -1.3940 H         1 UNK         0.0703 
     89 H89        28.4894   27.7670   -0.2127 H         1 UNK         0.3081 
     90 H90        26.8950   26.8728   -3.1779 H         1 UNK         0.0719 
     91 H91        28.1317   24.6974   -3.0102 H         1 UNK         0.0809 
     92 H92        29.1003   25.9361   -3.7929 H         1 UNK         0.0809 
     93 H93        29.4264   25.5014   -2.1226 H         1 UNK         0.0809 
     94 H94        27.2640   25.4054   -0.7730 H         1 UNK         0.2990 
     95 H95        24.7791   26.9786    1.1903 H         1 UNK         0.0690 
     96 H96        23.2557   26.0388   -0.5567 H         1 UNK         0.0788 
     97 H97        23.3519   24.9811    0.8409 H         1 UNK         0.0788 
     98 H98        24.2288   24.5758   -0.6350 H         1 UNK         0.0788 
     99 H99        25.8239   24.3086    1.2326 H         1 UNK         0.2993 
    100 H100       28.8477   25.0263    2.9288 H         1 UNK         0.0949 
    101 H101       26.2940   23.8215    4.1081 H         1 UNK         0.0767 
    102 H102       27.9288   23.6778    4.7560 H         1 UNK         0.0767 
    103 H103       27.1157   25.2321    4.7551 H         1 UNK         0.0767 
    104 H104       27.8452   22.5153    2.5852 H         1 UNK         0.3013 
    105 H105       26.8024   29.5471   -0.5869 H         1 UNK         0.3121 
    106 H106       25.0364   30.7463   -0.1639 H         1 UNK         0.0774 
    107 H107       26.6605   33.3425   -0.2469 H         1 UNK         0.0815 
    108 H108       24.9156   33.1859   -0.2978 H         1 UNK         0.0815 
    109 H109       25.8815   32.5855   -1.6364 H         1 UNK         0.0815 
    110 H110       27.8375   31.8909    1.7334 H         1 UNK         0.2987 
    111 H111       26.4582   31.0524    4.2182 H         1 UNK         0.0949 
    112 H112       28.0720   33.6564    3.9034 H         1 UNK         0.0806 
    113 H113       26.3401   33.5600    4.2165 H         1 UNK         0.0806 
    114 H114       27.4847   32.9941    5.4239 H         1 UNK         0.0806 
    115 H115       27.7644   29.5888    5.2053 H         1 UNK         0.3010 
    116 H116       30.2063   28.7662    3.9350 H         1 UNK         0.0829 
    117 H117       30.0631   26.8754    5.5475 H         1 UNK         0.0813 
    118 H118       28.7767   27.6964    6.4188 H         1 UNK         0.0813 
    119 H119       28.5238   27.1581    4.7578 H         1 UNK         0.0813 
    120 H120       30.7441   31.2815    4.7784 H         1 UNK         0.3038 
    121 H121       32.5735   31.0883    7.1271 H         1 UNK         0.0769 
    122 H122       31.7957   33.4657    5.3489 H         1 UNK         0.0811 
    123 H123       32.8179   33.5415    6.7784 H         1 UNK         0.0811 
    124 H124       31.1248   33.1044    6.9390 H         1 UNK         0.0811 
    125 H125       32.5960   31.0567    3.6194 H         1 UNK         0.3204 
    126 H126       35.1418   32.0666    3.0795 H         1 UNK         0.0748 
    127 H127       33.3464   31.7838    1.3774 H         1 UNK         0.0771 
    128 H128       34.8255   31.0005    0.8477 H         1 UNK         0.0771 
    129 H129       33.5053   30.0298    1.4795 H         1 UNK         0.0771 
    130 H130       34.3136   28.8354    4.1944 H         1 UNK         0.2980 
    131 H131       36.9155   27.6891    3.5750 H         1 UNK         0.0545 
    132 H132       37.3223   29.4765    7.1288 H         1 UNK         0.3459 
    133 H133       36.0626   29.9485    6.0149 H         1 UNK         0.3459 
    134 H134       35.0544   26.1895    3.4696 H         1 UNK         0.0616 
    135 H135       36.0802   25.6769    4.7781 H         1 UNK         0.0616 
    136 H136       33.9212   24.1275    5.4533 H         1 UNK         0.0634 
    137 H137       32.3731   24.7714    5.9496 H         1 UNK         0.0634 
@<TRIPOS>BOND
     1    1    2 1    
     2    1   72 1    
     3    1   73 1    
     4    1   74 1    
     5    2    3 2    
     6    2    4 am   BACKBONE|DICT|INTERRES
     7    4    5 1    
     8    4   75 1    
     9    5    6 1    
    10    5   35 1    
    11    5   76 1    
    12    6    7 1    
    13    6   77 1    
    14    6   78 1    
    15    7    8 1    
    16    8    9 1    
    17    8   79 1    
    18    8   80 1    
    19    9   10 ar   
    20    9   14 ar   
    21   10   11 ar   
    22   10   81 1    
    23   11   12 ar   
    24   11   71 1    
    25   12   13 ar   
    26   12   82 1    
    27   13   14 ar   
    28   13   15 1    
    29   14   83 1    
    30   15   16 1    
    31   15   84 1    
    32   15   85 1    
    33   16   17 1    
    34   17   18 1    
    35   17   86 1    
    36   17   87 1    
    37   18   19 1    
    38   18   37 1    
    39   18   88 1    
    40   19   20 am   BACKBONE|DICT|INTERRES
    41   19   89 1    
    42   20   21 2    
    43   20   22 1    
    44   22   23 1    
    45   22   24 1    
    46   22   90 1    
    47   23   91 1    
    48   23   92 1    
    49   23   93 1    
    50   24   25 am   BACKBONE|DICT|INTERRES
    51   24   94 1    
    52   25   26 2    
    53   25   27 1    
    54   27   28 1    
    55   27   29 1    
    56   27   95 1    
    57   28   96 1    
    58   28   97 1    
    59   28   98 1    
    60   29   30 am   BACKBONE|DICT|INTERRES
    61   29   99 1    
    62   30   31 2    
    63   30   32 1    
    64   32   33 1    
    65   32   34 1    
    66   32  100 1    
    67   33  101 1    
    68   33  102 1    
    69   33  103 1    
    70   34   35 am   BACKBONE|DICT|INTERRES
    71   34  104 1    
    72   35   36 2    
    73   37   38 2    
    74   37   39 am   BACKBONE|DICT|INTERRES
    75   39   40 1    
    76   39  105 1    
    77   40   41 1    
    78   40   42 1    
    79   40  106 1    
    80   41  107 1    
    81   41  108 1    
    82   41  109 1    
    83   42   43 2    
    84   42   44 am   BACKBONE|DICT|INTERRES
    85   44   45 1    
    86   44  110 1    
    87   45   46 1    
    88   45   47 1    
    89   45  111 1    
    90   46  112 1    
    91   46  113 1    
    92   46  114 1    
    93   47   48 2    
    94   47   49 am   BACKBONE|DICT|INTERRES
    95   49   50 1    
    96   49  115 1    
    97   50   51 1    
    98   50   52 1    
    99   50  116 1    
   100   51  117 1    
   101   51  118 1    
   102   51  119 1    
   103   52   53 2    
   104   52   54 am   BACKBONE|DICT|INTERRES
   105   54   55 1    
   106   54  120 1    
   107   55   56 1    
   108   55   57 1    
   109   55  121 1    
   110   56  122 1    
   111   56  123 1    
   112   56  124 1    
   113   57   58 2    
   114   57   59 am   BACKBONE|DICT|INTERRES
   115   59   60 1    
   116   59  125 1    
   117   60   61 1    
   118   60   62 1    
   119   60  126 1    
   120   61  127 1    
   121   61  128 1    
   122   61  129 1    
   123   62   63 2    
   124   62   64 am   BACKBONE|DICT|INTERRES
   125   64   65 1    
   126   64  130 1    
   127   65   66 1    
   128   65   69 1    
   129   65  131 1    
   130   66   67 am   BACKBONE|DICT|INTERRES
   131   66   68 2    
   132   67  132 1    
   133   67  133 1    
   134   69   70 1    
   135   69  134 1    
   136   69  135 1    
   137   70   71 1    
   138   71  136 1    
   139   71  137 1    
@<TRIPOS>SUBSTRUCTURE
     1 UNK         1 GROUP             0       ****    0 ROOT    
