@<TRIPOS>MOLECULE
3R136
137   139    1
SMALL
USER_CHARGES


@<TRIPOS>ATOM
      1 CA         26.1969   26.1288    5.3812 C.3       0 UNK        -0.1979 
      2 C          26.2736   24.6914    4.8878 C.2       0 UNK         0.4864 
      3 O          25.2390   24.0767    4.6270 O.2       0 UNK        -0.5359 
      4 N          27.4933   24.1548    4.7484 N.am      1 UNK        -0.4318 
      5 CA         27.7822   22.8075    4.2357 C.3       1 UNK         0.0824 
      6 C6         29.2369   22.3605    4.5473 C.3       12 UNK        -0.0944 
      7 S7         30.5022   23.6422    4.2419 S.3       12 UNK        -0.2672 
      8 C8         31.1091   23.1977    2.5885 C.3       12 UNK         0.0333 
      9 C9         32.0893   24.2415    2.0741 C.ar      12 UNK        -0.0807 
     10 C10        33.4675   24.0149    2.1489 C.ar      12 UNK        -0.0894 
     11 C11        34.3716   24.9604    1.6542 C.ar      12 UNK        -0.0804 
     12 C12        33.8834   26.1420    1.0862 C.ar      12 UNK        -0.0824 
     13 C13        32.5091   26.3920    1.0273 C.ar      12 UNK        -0.0762 
     14 C14        31.6159   25.4343    1.5173 C.ar      12 UNK        -0.0782 
     15 C15        32.0034   27.7139    0.4668 C.3       12 UNK         0.0230 
     16 S16        31.5702   27.5771   -1.2952 S.3       12 UNK        -0.2608 
     17 C17        29.8057   27.1171   -1.2056 C.3       12 UNK        -0.0989 
     18 CA         28.8702   28.1704   -1.8557 C.3       5 UNK         0.0716 
     19 N          27.5985   27.5536   -2.2280 N.am      5 UNK        -0.4135 
     20 C          26.8834   27.8491   -3.3212 C.2       4 UNK         0.5031 
     21 O          27.2506   28.6510   -4.1817 O.2       4 UNK        -0.5229 
     22 CA         25.5406   27.1161   -3.5148 C.3       4 UNK         0.0329 
     23 CB         25.6647   26.0548   -4.6210 C.3       4 UNK        -0.2001 
     24 N          25.0519   26.4708   -2.2940 N.am      4 UNK        -0.4303 
     25 C          24.4570   27.1094   -1.2769 C.2       3 UNK         0.5044 
     26 O          24.1592   28.3037   -1.2988 O.2       3 UNK        -0.5152 
     27 CA         24.1482   26.2787   -0.0163 C.3       3 UNK         0.0319 
     28 CB         22.6718   25.8503   -0.0036 C.3       3 UNK        -0.2001 
     29 N          24.9962   25.0902    0.1506 N.am      3 UNK        -0.4354 
     30 C          26.3191   25.1186    0.3609 C.2       2 UNK         0.4964 
     31 O          26.9876   26.1521    0.3962 O.2       2 UNK        -0.5047 
     32 CA         27.0170   23.7757    0.5780 C.3       2 UNK         0.0288 
     33 CB         28.2421   23.6096   -0.3402 C.3       2 UNK        -0.2113 
     34 N          27.4277   23.7279    1.9752 N.am      2 UNK        -0.4145 
     35 C          27.4393   22.6292    2.7399 C.2       1 UNK         0.5006 
     36 O          27.1827   21.5012    2.3145 O.2       1 UNK        -0.5103 
     37 C          28.6104   29.3813   -0.9335 C.2       5 UNK         0.5055 
     38 O          27.4860   29.5905   -0.4685 O.2       5 UNK        -0.5220 
     39 N          29.6674   30.1596   -0.6718 N.am      6 UNK        -0.4450 
     40 CA         29.6849   31.2751    0.2739 C.3       6 UNK         0.0367 
     41 CB         30.9279   32.1426    0.0024 C.3       6 UNK        -0.1929 
     42 C          29.6534   30.7543    1.7214 C.2       6 UNK         0.5070 
     43 O          30.7026   30.6459    2.3557 O.2       6 UNK        -0.5237 
     44 N          28.4501   30.4210    2.2078 N.am      7 UNK        -0.4739 
     45 CA         28.1731   29.8129    3.5170 C.3       7 UNK         0.0276 
     46 CB         26.6541   29.6503    3.6847 C.3       7 UNK        -0.1927 
     47 C          28.7707   30.5580    4.7263 C.2       7 UNK         0.5013 
     48 O          29.1357   29.9176    5.7121 O.2       7 UNK        -0.5193 
     49 N          28.8873   31.8880    4.6161 N.am      8 UNK        -0.4253 
     50 CA         29.4992   32.7677    5.6147 C.3       8 UNK         0.0242 
     51 CB         29.1132   34.2218    5.2955 C.3       8 UNK        -0.2000 
     52 C          31.0317   32.6336    5.7263 C.2       8 UNK         0.4948 
     53 O          31.5902   33.0890    6.7254 O.2       8 UNK        -0.5275 
     54 N          31.6878   32.0374    4.7212 N.am      9 UNK        -0.4246 
     55 CA         33.1393   31.8574    4.6482 C.3       9 UNK         0.0261 
     56 CB         33.7338   32.9256    3.7104 C.3       9 UNK        -0.1959 
     57 C          33.4795   30.4250    4.2051 C.2       9 UNK         0.5033 
     58 O          34.4428   30.2206    3.4625 O.2       9 UNK        -0.5390 
     59 N          32.6775   29.4512    4.6562 N.am      10 UNK        -0.4215 
     60 CA         32.7261   28.0470    4.2460 C.3       10 UNK         0.0240 
     61 CB         31.3562   27.4070    4.5191 C.3       10 UNK        -0.1982 
     62 C          33.8913   27.2519    4.8656 C.2       10 UNK         0.4970 
     63 O          33.6604   26.2665    5.5683 O.2       10 UNK        -0.4916 
     64 N          35.1214   27.7033    4.5942 N.am      11 UNK        -0.4279 
     65 CA         36.3942   27.0691    4.9804 C.3       11 UNK         0.1003 
     66 C          36.6385   26.9505    6.5178 C.2       11 UNK         0.5709 
     67 N          35.9627   27.7296    7.3545 N.am      11 UNK        -0.7358 
     68 O          37.4799   26.1731    6.9633 O.2       11 UNK        -0.4999 
     69 C69        36.6470   25.7394    4.2091 C.3       12 UNK        -0.0954 
     70 S70        36.8529   26.0241    2.4183 S.3       12 UNK        -0.2268 
     71 C71        35.8696   24.6762    1.6829 C.3       12 UNK         0.0203 
     72 H72        25.6315   26.7357    4.6745 H         1 UNK         0.0888 
     73 H73        25.6908   26.1680    6.3453 H         1 UNK         0.0888 
     74 H74        27.1847   26.5753    5.4967 H         1 UNK         0.0888 
     75 H75        28.3122   24.6973    4.9884 H         1 UNK         0.3017 
     76 H76        27.1183   22.1219    4.7672 H         1 UNK         0.0873 
     77 H77        29.4994   21.4421    4.0178 H         1 UNK         0.0745 
     78 H78        29.3027   22.1054    5.6061 H         1 UNK         0.0745 
     79 H79        30.2720   23.1119    1.8957 H         1 UNK         0.0705 
     80 H80        31.5796   22.2141    2.6286 H         1 UNK         0.0705 
     81 H81        33.8349   23.0940    2.5808 H         1 UNK         0.1334 
     82 H82        34.5783   26.8740    0.6975 H         1 UNK         0.1417 
     83 H83        30.5517   25.6186    1.4801 H         1 UNK         0.1562 
     84 H84        32.7722   28.4809    0.5758 H         1 UNK         0.0748 
     85 H85        31.1507   28.0702    1.0469 H         1 UNK         0.0748 
     86 H86        29.5045   26.9081   -0.1782 H         1 UNK         0.0940 
     87 H87        29.7146   26.1669   -1.7347 H         1 UNK         0.0940 
     88 H88        29.3522   28.5452   -2.7615 H         1 UNK         0.0703 
     89 H89        27.1796   26.9740   -1.5103 H         1 UNK         0.3081 
     90 H90        24.8068   27.8587   -3.8357 H         1 UNK         0.0719 
     91 H91        25.9925   26.5051   -5.5592 H         1 UNK         0.0809 
     92 H92        26.3888   25.2815   -4.3610 H         1 UNK         0.0809 
     93 H93        24.7080   25.5693   -4.8150 H         1 UNK         0.0809 
     94 H94        25.2310   25.4820   -2.1968 H         1 UNK         0.2990 
     95 H95        24.3212   26.9288    0.8443 H         1 UNK         0.0690 
     96 H96        22.4118   25.3470    0.9280 H         1 UNK         0.0788 
     97 H97        22.4396   25.1751   -0.8282 H         1 UNK         0.0788 
     98 H98        22.0132   26.7153   -0.0957 H         1 UNK         0.0788 
     99 H99        24.5218   24.1980    0.1461 H         1 UNK         0.2993 
    100 H100       26.3086   22.9713    0.3666 H         1 UNK         0.0949 
    101 H101       29.0126   24.3504   -0.1265 H         1 UNK         0.0767 
    102 H102       28.6903   22.6229   -0.2222 H         1 UNK         0.0767 
    103 H103       27.9642   23.7166   -1.3895 H         1 UNK         0.0767 
    104 H104       27.6207   24.6228    2.4036 H         1 UNK         0.3013 
    105 H105       30.5596   29.8896   -1.0636 H         1 UNK         0.3121 
    106 H106       28.7993   31.8936    0.1119 H         1 UNK         0.0774 
    107 H107       30.9785   32.9794    0.7004 H         1 UNK         0.0815 
    108 H108       31.8528   31.5741    0.1105 H         1 UNK         0.0815 
    109 H109       30.9074   32.5615   -1.0037 H         1 UNK         0.0815 
    110 H110       27.6700   30.4664    1.5623 H         1 UNK         0.2987 
    111 H111       28.6102   28.8148    3.5027 H         1 UNK         0.0949 
    112 H112       26.2374   29.0020    2.9130 H         1 UNK         0.0806 
    113 H113       26.4119   29.2015    4.6491 H         1 UNK         0.0806 
    114 H114       26.1376   30.6095    3.6337 H         1 UNK         0.0806 
    115 H115       28.5637   32.3201    3.7629 H         1 UNK         0.3010 
    116 H116       29.0824   32.5097    6.5908 H         1 UNK         0.0829 
    117 H117       29.4948   34.5368    4.3234 H         1 UNK         0.0813 
    118 H118       29.5188   34.9069    6.0415 H         1 UNK         0.0813 
    119 H119       28.0311   34.3549    5.2927 H         1 UNK         0.0813 
    120 H120       31.1651   31.6465    3.9392 H         1 UNK         0.3038 
    121 H121       33.5861   31.9816    5.6366 H         1 UNK         0.0769 
    122 H122       33.4931   33.9320    4.0530 H         1 UNK         0.0811 
    123 H123       33.3556   32.8175    2.6928 H         1 UNK         0.0811 
    124 H124       34.8211   32.8512    3.6668 H         1 UNK         0.0811 
    125 H125       31.9215   29.7096    5.2750 H         1 UNK         0.3204 
    126 H126       32.8854   28.0279    3.1687 H         1 UNK         0.0748 
    127 H127       31.0734   27.4754    5.5701 H         1 UNK         0.0771 
    128 H128       30.5823   27.8843    3.9232 H         1 UNK         0.0771 
    129 H129       31.3607   26.3534    4.2471 H         1 UNK         0.0771 
    130 H130       35.1914   28.5572    4.0470 H         1 UNK         0.2980 
    131 H131       37.1641   27.7715    4.6596 H         1 UNK         0.0545 
    132 H132       36.1348   27.6566    8.3447 H         1 UNK         0.3459 
    133 H133       35.2722   28.3739    7.0058 H         1 UNK         0.3459 
    134 H134       35.8376   25.0297    4.3869 H         1 UNK         0.0616 
    135 H135       37.5606   25.2521    4.5527 H         1 UNK         0.0616 
    136 H136       36.0856   23.7478    2.2139 H         1 UNK         0.0634 
    137 H137       36.2073   24.5265    0.6567 H         1 UNK         0.0634 
@<TRIPOS>BOND
     1    1    2 1    
     2    1   72 1    
     3    1   73 1    
     4    1   74 1    
     5    2    3 2    
     6    2    4 am   BACKBONE|DICT|INTERRES
     7    4    5 1    
     8    4   75 1    
     9    5    6 1    
    10    5   35 1    
    11    5   76 1    
    12    6    7 1    
    13    6   77 1    
    14    6   78 1    
    15    7    8 1    
    16    8    9 1    
    17    8   79 1    
    18    8   80 1    
    19    9   10 ar   
    20    9   14 ar   
    21   10   11 ar   
    22   10   81 1    
    23   11   12 ar   
    24   11   71 1    
    25   12   13 ar   
    26   12   82 1    
    27   13   14 ar   
    28   13   15 1    
    29   14   83 1    
    30   15   16 1    
    31   15   84 1    
    32   15   85 1    
    33   16   17 1    
    34   17   18 1    
    35   17   86 1    
    36   17   87 1    
    37   18   19 1    
    38   18   37 1    
    39   18   88 1    
    40   19   20 am   BACKBONE|DICT|INTERRES
    41   19   89 1    
    42   20   21 2    
    43   20   22 1    
    44   22   23 1    
    45   22   24 1    
    46   22   90 1    
    47   23   91 1    
    48   23   92 1    
    49   23   93 1    
    50   24   25 am   BACKBONE|DICT|INTERRES
    51   24   94 1    
    52   25   26 2    
    53   25   27 1    
    54   27   28 1    
    55   27   29 1    
    56   27   95 1    
    57   28   96 1    
    58   28   97 1    
    59   28   98 1    
    60   29   30 am   BACKBONE|DICT|INTERRES
    61   29   99 1    
    62   30   31 2    
    63   30   32 1    
    64   32   33 1    
    65   32   34 1    
    66   32  100 1    
    67   33  101 1    
    68   33  102 1    
    69   33  103 1    
    70   34   35 am   BACKBONE|DICT|INTERRES
    71   34  104 1    
    72   35   36 2    
    73   37   38 2    
    74   37   39 am   BACKBONE|DICT|INTERRES
    75   39   40 1    
    76   39  105 1    
    77   40   41 1    
    78   40   42 1    
    79   40  106 1    
    80   41  107 1    
    81   41  108 1    
    82   41  109 1    
    83   42   43 2    
    84   42   44 am   BACKBONE|DICT|INTERRES
    85   44   45 1    
    86   44  110 1    
    87   45   46 1    
    88   45   47 1    
    89   45  111 1    
    90   46  112 1    
    91   46  113 1    
    92   46  114 1    
    93   47   48 2    
    94   47   49 am   BACKBONE|DICT|INTERRES
    95   49   50 1    
    96   49  115 1    
    97   50   51 1    
    98   50   52 1    
    99   50  116 1    
   100   51  117 1    
   101   51  118 1    
   102   51  119 1    
   103   52   53 2    
   104   52   54 am   BACKBONE|DICT|INTERRES
   105   54   55 1    
   106   54  120 1    
   107   55   56 1    
   108   55   57 1    
   109   55  121 1    
   110   56  122 1    
   111   56  123 1    
   112   56  124 1    
   113   57   58 2    
   114   57   59 am   BACKBONE|DICT|INTERRES
   115   59   60 1    
   116   59  125 1    
   117   60   61 1    
   118   60   62 1    
   119   60  126 1    
   120   61  127 1    
   121   61  128 1    
   122   61  129 1    
   123   62   63 2    
   124   62   64 am   BACKBONE|DICT|INTERRES
   125   64   65 1    
   126   64  130 1    
   127   65   66 1    
   128   65   69 1    
   129   65  131 1    
   130   66   67 am   BACKBONE|DICT|INTERRES
   131   66   68 2    
   132   67  132 1    
   133   67  133 1    
   134   69   70 1    
   135   69  134 1    
   136   69  135 1    
   137   70   71 1    
   138   71  136 1    
   139   71  137 1    
@<TRIPOS>SUBSTRUCTURE
     1 UNK         1 GROUP             0       ****    0 ROOT    
