@<TRIPOS>MOLECULE
3R136
137   139    1
SMALL
USER_CHARGES


@<TRIPOS>ATOM
      1 CA         31.9283   29.9631   -2.7273 C.3       0 UNK        -0.1979 
      2 C          30.6555   29.3124   -2.2070 C.2       0 UNK         0.4864 
      3 O          29.6088   29.9614   -2.1605 O.2       0 UNK        -0.5359 
      4 N          30.7329   28.0348   -1.8134 N.am      1 UNK        -0.4318 
      5 CA         29.6164   27.2422   -1.2883 C.3       1 UNK         0.0824 
      6 C6         30.1101   26.0403   -0.4445 C.3       12 UNK        -0.0944 
      7 S7         30.8735   26.6084    1.1072 S.3       12 UNK        -0.2672 
      8 C8         32.0223   25.2527    1.5060 C.3       12 UNK         0.0333 
      9 C9         31.9529   24.9181    2.9885 C.ar      12 UNK        -0.0807 
     10 C10        32.4257   25.8309    3.9355 C.ar      12 UNK        -0.0894 
     11 C11        32.3033   25.5659    5.3020 C.ar      12 UNK        -0.0804 
     12 C12        31.6937   24.3790    5.7204 C.ar      12 UNK        -0.0824 
     13 C13        31.2283   23.4488    4.7841 C.ar      12 UNK        -0.0762 
     14 C14        31.3868   23.7138    3.4186 C.ar      12 UNK        -0.0782 
     15 C15        30.5617   22.1596    5.2579 C.3       12 UNK         0.0230 
     16 S16        28.9462   21.8370    4.4670 S.3       12 UNK        -0.2608 
     17 C17        27.9840   23.3258    4.9111 C.3       12 UNK        -0.0989 
     18 CA         27.9029   24.3327    3.7311 C.3       5 UNK         0.0716 
     19 N          27.3210   23.7676    2.5098 N.am      5 UNK        -0.4135 
     20 C          26.0421   23.4301    2.3065 C.2       4 UNK         0.5031 
     21 O          25.1408   23.5508    3.1391 O.2       4 UNK        -0.5229 
     22 CA         25.7198   22.8696    0.9105 C.3       4 UNK         0.0329 
     23 CB         24.8926   21.5757    1.0066 C.3       4 UNK        -0.2001 
     24 N          25.0121   23.8333    0.0640 N.am      4 UNK        -0.4303 
     25 C          25.4565   25.0483   -0.2840 C.2       3 UNK         0.5044 
     26 O          26.5108   25.5503    0.1209 O.2       3 UNK        -0.5152 
     27 CA         24.5701   25.8330   -1.2605 C.3       3 UNK         0.0319 
     28 CB         23.5087   26.6501   -0.5061 C.3       3 UNK        -0.2001 
     29 N          25.4307   26.7360   -2.0176 N.am      3 UNK        -0.4354 
     30 C          25.6197   26.7130   -3.3424 C.2       2 UNK         0.4964 
     31 O          24.9382   26.0507   -4.1258 O.2       2 UNK        -0.5047 
     32 CA         26.7877   27.5575   -3.8878 C.3       2 UNK         0.0288 
     33 CB         26.2832   28.9222   -4.3838 C.3       2 UNK        -0.2113 
     34 N          27.8551   27.7675   -2.9035 N.am      2 UNK        -0.4145 
     35 C          28.6671   26.8134   -2.4259 C.2       1 UNK         0.5006 
     36 O          28.6858   25.6558   -2.8501 O.2       1 UNK        -0.5103 
     37 C          27.2766   25.6890    4.1106 C.2       5 UNK         0.5055 
     38 O          26.9517   25.9253    5.2771 O.2       5 UNK        -0.5220 
     39 N          27.1450   26.5684    3.1073 N.am      6 UNK        -0.4450 
     40 CA         26.8767   27.9958    3.2840 C.3       6 UNK         0.0367 
     41 CB         26.6326   28.6232    1.9013 C.3       6 UNK        -0.1929 
     42 C          28.0532   28.7030    3.9833 C.2       6 UNK         0.5070 
     43 O          29.1823   28.2123    3.9374 O.2       6 UNK        -0.5237 
     44 N          27.7834   29.8697    4.5813 N.am      7 UNK        -0.4739 
     45 CA         28.7914   30.7384    5.1976 C.3       7 UNK         0.0276 
     46 CB         28.0957   31.6870    6.1913 C.3       7 UNK        -0.1927 
     47 C          29.5979   31.4922    4.1218 C.2       7 UNK         0.5013 
     48 O          29.4215   32.6998    3.9469 O.2       7 UNK        -0.5193 
     49 N          30.4347   30.7490    3.3952 N.am      8 UNK        -0.4253 
     50 CA         31.2662   31.2095    2.2911 C.3       8 UNK         0.0242 
     51 CB         30.4452   31.1484    0.9893 C.3       8 UNK        -0.2000 
     52 C          32.5226   30.3323    2.2071 C.2       8 UNK         0.4948 
     53 O          32.6450   29.3554    2.9517 O.2       8 UNK        -0.5275 
     54 N          33.4347   30.6987    1.2944 N.am      9 UNK        -0.4246 
     55 CA         34.6938   30.0133    0.9818 C.3       9 UNK         0.0261 
     56 CB         34.4169   28.6614    0.2825 C.3       9 UNK        -0.1959 
     57 C          35.6090   29.8976    2.2158 C.2       9 UNK         0.5033 
     58 O          36.2987   30.8630    2.5469 O.2       9 UNK        -0.5390 
     59 N          35.5928   28.7304    2.8709 N.am      10 UNK        -0.4215 
     60 CA         36.3435   28.4331    4.0912 C.3       10 UNK         0.0240 
     61 CB         36.4449   26.9059    4.2483 C.3       10 UNK        -0.1982 
     62 C          35.7579   29.0780    5.3636 C.2       10 UNK         0.4970 
     63 O          36.4552   29.1070    6.3789 O.2       10 UNK        -0.4916 
     64 N          34.5131   29.5660    5.3098 N.am      11 UNK        -0.4279 
     65 CA         33.8023   30.1955    6.4316 C.3       11 UNK         0.1003 
     66 C          32.9706   31.4254    5.9710 C.2       11 UNK         0.5709 
     67 N          31.9932   31.8693    6.7508 N.am      11 UNK        -0.7358 
     68 O          33.2438   32.0315    4.9372 O.2       11 UNK        -0.4999 
     69 C69        33.0469   29.1555    7.3127 C.3       12 UNK        -0.0954 
     70 S70        31.8861   28.0930    6.3855 S.3       12 UNK        -0.2268 
     71 C71        32.8554   26.5538    6.3182 C.3       12 UNK         0.0203 
     72 H72        32.7225   29.2340   -2.8861 H         1 UNK         0.0888 
     73 H73        31.7340   30.4606   -3.6771 H         1 UNK         0.0888 
     74 H74        32.2852   30.7090   -2.0180 H         1 UNK         0.0888 
     75 H75        31.6134   27.5459   -1.8833 H         1 UNK         0.3017 
     76 H76        29.0294   27.8800   -0.6232 H         1 UNK         0.0873 
     77 H77        29.2799   25.3838   -0.1766 H         1 UNK         0.0745 
     78 H78        30.8177   25.4336   -1.0124 H         1 UNK         0.0745 
     79 H79        31.7872   24.3720    0.9066 H         1 UNK         0.0705 
     80 H80        33.0376   25.5486    1.2393 H         1 UNK         0.0705 
     81 H81        32.8627   26.7648    3.6090 H         1 UNK         0.1334 
     82 H82        31.5885   24.1769    6.7777 H         1 UNK         0.1417 
     83 H83        31.0249   22.9990    2.6921 H         1 UNK         0.1562 
     84 H84        30.4204   22.1710    6.3399 H         1 UNK         0.0748 
     85 H85        31.2285   21.3231    5.0453 H         1 UNK         0.0748 
     86 H86        28.4402   23.7917    5.7867 H         1 UNK         0.0940 
     87 H87        26.9834   23.0176    5.2189 H         1 UNK         0.0940 
     88 H88        28.9228   24.5977    3.4607 H         1 UNK         0.0703 
     89 H89        27.9640   23.6566    1.7396 H         1 UNK         0.3081 
     90 H90        26.6582   22.6238    0.4087 H         1 UNK         0.0719 
     91 H91        23.9088   21.7552    1.4426 H         1 UNK         0.0809 
     92 H92        24.7479   21.1214    0.0262 H         1 UNK         0.0809 
     93 H93        25.3959   20.8378    1.6330 H         1 UNK         0.0809 
     94 H94        24.1186   23.5313   -0.2964 H         1 UNK         0.2990 
     95 H95        24.0714   25.1259   -1.9269 H         1 UNK         0.0690 
     96 H96        22.8797   27.2106   -1.1979 H         1 UNK         0.0788 
     97 H97        23.9575   27.3619    0.1862 H         1 UNK         0.0788 
     98 H98        22.8525   26.0001    0.0740 H         1 UNK         0.0788 
     99 H99        26.0904   27.2552   -1.4557 H         1 UNK         0.2993 
    100 H100       27.2131   27.0169   -4.7362 H         1 UNK         0.0949 
    101 H101       25.5070   28.8000   -5.1406 H         1 UNK         0.0767 
    102 H102       25.8583   29.5148   -3.5725 H         1 UNK         0.0767 
    103 H103       27.0881   29.5015   -4.8371 H         1 UNK         0.0767 
    104 H104       28.0010   28.7152   -2.5700 H         1 UNK         0.3013 
    105 H105       27.4004   26.2727    2.1739 H         1 UNK         0.3121 
    106 H106       25.9796   28.1063    3.8967 H         1 UNK         0.0774 
    107 H107       26.3759   29.6798    1.9869 H         1 UNK         0.0815 
    108 H108       27.5181   28.5537    1.2682 H         1 UNK         0.0815 
    109 H109       25.8112   28.1313    1.3829 H         1 UNK         0.0815 
    110 H110       26.8398   30.2289    4.5483 H         1 UNK         0.2987 
    111 H111       29.4950   30.1224    5.7633 H         1 UNK         0.0949 
    112 H112       28.8204   32.3441    6.6737 H         1 UNK         0.0806 
    113 H113       27.3572   32.3212    5.6994 H         1 UNK         0.0806 
    114 H114       27.5892   31.1315    6.9808 H         1 UNK         0.0806 
    115 H115       30.5137   29.7552    3.6030 H         1 UNK         0.3010 
    116 H116       31.5859   32.2359    2.4834 H         1 UNK         0.0829 
    117 H117       29.5421   31.7548    1.0590 H         1 UNK         0.0813 
    118 H118       31.0136   31.5215    0.1374 H         1 UNK         0.0813 
    119 H119       30.1409   30.1258    0.7600 H         1 UNK         0.0813 
    120 H120       33.2671   31.5477    0.7732 H         1 UNK         0.3038 
    121 H121       35.2239   30.6457    0.2678 H         1 UNK         0.0769 
    122 H122       33.7909   27.9993    0.8811 H         1 UNK         0.0811 
    123 H123       35.3457   28.1332    0.0628 H         1 UNK         0.0811 
    124 H124       33.9064   28.8148   -0.6674 H         1 UNK         0.0811 
    125 H125       34.9481   28.0237    2.5481 H         1 UNK         0.3204 
    126 H126       37.3550   28.8277    3.9732 H         1 UNK         0.0748 
    127 H127       36.9801   26.4581    3.4106 H         1 UNK         0.0771 
    128 H128       36.9883   26.6383    5.1557 H         1 UNK         0.0771 
    129 H129       35.4628   26.4363    4.3049 H         1 UNK         0.0771 
    130 H130       33.9886   29.5264    4.4400 H         1 UNK         0.2980 
    131 H131       34.5554   30.6535    7.0750 H         1 UNK         0.0545 
    132 H132       31.4859   32.6927    6.4694 H         1 UNK         0.3459 
    133 H133       31.7706   31.4110    7.6196 H         1 UNK         0.3459 
    134 H134       33.7775   28.5218    7.8174 H         1 UNK         0.0616 
    135 H135       32.4999   29.6422    8.1207 H         1 UNK         0.0616 
    136 H136       33.8874   26.7855    6.0570 H         1 UNK         0.0634 
    137 H137       32.8840   26.1109    7.3148 H         1 UNK         0.0634 
@<TRIPOS>BOND
     1    1    2 1    
     2    1   72 1    
     3    1   73 1    
     4    1   74 1    
     5    2    3 2    
     6    2    4 am   BACKBONE|DICT|INTERRES
     7    4    5 1    
     8    4   75 1    
     9    5    6 1    
    10    5   35 1    
    11    5   76 1    
    12    6    7 1    
    13    6   77 1    
    14    6   78 1    
    15    7    8 1    
    16    8    9 1    
    17    8   79 1    
    18    8   80 1    
    19    9   10 ar   
    20    9   14 ar   
    21   10   11 ar   
    22   10   81 1    
    23   11   12 ar   
    24   11   71 1    
    25   12   13 ar   
    26   12   82 1    
    27   13   14 ar   
    28   13   15 1    
    29   14   83 1    
    30   15   16 1    
    31   15   84 1    
    32   15   85 1    
    33   16   17 1    
    34   17   18 1    
    35   17   86 1    
    36   17   87 1    
    37   18   19 1    
    38   18   37 1    
    39   18   88 1    
    40   19   20 am   BACKBONE|DICT|INTERRES
    41   19   89 1    
    42   20   21 2    
    43   20   22 1    
    44   22   23 1    
    45   22   24 1    
    46   22   90 1    
    47   23   91 1    
    48   23   92 1    
    49   23   93 1    
    50   24   25 am   BACKBONE|DICT|INTERRES
    51   24   94 1    
    52   25   26 2    
    53   25   27 1    
    54   27   28 1    
    55   27   29 1    
    56   27   95 1    
    57   28   96 1    
    58   28   97 1    
    59   28   98 1    
    60   29   30 am   BACKBONE|DICT|INTERRES
    61   29   99 1    
    62   30   31 2    
    63   30   32 1    
    64   32   33 1    
    65   32   34 1    
    66   32  100 1    
    67   33  101 1    
    68   33  102 1    
    69   33  103 1    
    70   34   35 am   BACKBONE|DICT|INTERRES
    71   34  104 1    
    72   35   36 2    
    73   37   38 2    
    74   37   39 am   BACKBONE|DICT|INTERRES
    75   39   40 1    
    76   39  105 1    
    77   40   41 1    
    78   40   42 1    
    79   40  106 1    
    80   41  107 1    
    81   41  108 1    
    82   41  109 1    
    83   42   43 2    
    84   42   44 am   BACKBONE|DICT|INTERRES
    85   44   45 1    
    86   44  110 1    
    87   45   46 1    
    88   45   47 1    
    89   45  111 1    
    90   46  112 1    
    91   46  113 1    
    92   46  114 1    
    93   47   48 2    
    94   47   49 am   BACKBONE|DICT|INTERRES
    95   49   50 1    
    96   49  115 1    
    97   50   51 1    
    98   50   52 1    
    99   50  116 1    
   100   51  117 1    
   101   51  118 1    
   102   51  119 1    
   103   52   53 2    
   104   52   54 am   BACKBONE|DICT|INTERRES
   105   54   55 1    
   106   54  120 1    
   107   55   56 1    
   108   55   57 1    
   109   55  121 1    
   110   56  122 1    
   111   56  123 1    
   112   56  124 1    
   113   57   58 2    
   114   57   59 am   BACKBONE|DICT|INTERRES
   115   59   60 1    
   116   59  125 1    
   117   60   61 1    
   118   60   62 1    
   119   60  126 1    
   120   61  127 1    
   121   61  128 1    
   122   61  129 1    
   123   62   63 2    
   124   62   64 am   BACKBONE|DICT|INTERRES
   125   64   65 1    
   126   64  130 1    
   127   65   66 1    
   128   65   69 1    
   129   65  131 1    
   130   66   67 am   BACKBONE|DICT|INTERRES
   131   66   68 2    
   132   67  132 1    
   133   67  133 1    
   134   69   70 1    
   135   69  134 1    
   136   69  135 1    
   137   70   71 1    
   138   71  136 1    
   139   71  137 1    
@<TRIPOS>SUBSTRUCTURE
     1 UNK         1 GROUP             0       ****    0 ROOT    
