@<TRIPOS>MOLECULE
3R136
137   139    1
SMALL
USER_CHARGES


@<TRIPOS>ATOM
      1 CA         27.6078   21.7043   -3.4462 C.3       0 UNK        -0.1979 
      2 C          28.4396   22.5533   -2.4972 C.2       0 UNK         0.4864 
      3 O          28.3629   23.7816   -2.5506 O.2       0 UNK        -0.5359 
      4 N          29.2204   21.9089   -1.6167 N.am      1 UNK        -0.4318 
      5 CA         30.1112   22.5443   -0.6326 C.3       1 UNK         0.0824 
      6 C6         30.9729   21.4943    0.1141 C.3       12 UNK        -0.0944 
      7 S7         30.0002   20.3680    1.1826 S.3       12 UNK        -0.2672 
      8 C8         30.9528   20.3524    2.7363 C.3       12 UNK         0.0333 
      9 C9         31.0926   21.7248    3.3874 C.ar      12 UNK        -0.0807 
     10 C10        32.3196   22.3921    3.3379 C.ar      12 UNK        -0.0894 
     11 C11        32.4912   23.6195    3.9812 C.ar      12 UNK        -0.0804 
     12 C12        31.4250   24.1774    4.6932 C.ar      12 UNK        -0.0824 
     13 C13        30.1922   23.5188    4.7629 C.ar      12 UNK        -0.0762 
     14 C14        30.0285   22.2981    4.0939 C.ar      12 UNK        -0.0782 
     15 C15        29.0668   24.0771    5.6294 C.3       12 UNK         0.0230 
     16 S16        28.1513   25.4376    4.8358 S.3       12 UNK        -0.2608 
     17 C17        29.0111   26.9181    5.4691 C.3       12 UNK        -0.0989 
     18 CA         29.0314   28.1252    4.4968 C.3       5 UNK         0.0716 
     19 N          29.4908   27.7748    3.1511 N.am      5 UNK        -0.4135 
     20 C          30.0956   28.6456    2.3347 C.2       4 UNK         0.5031 
     21 O          30.3574   29.8036    2.6565 O.2       4 UNK        -0.5229 
     22 CA         30.4643   28.1548    0.9276 C.3       4 UNK         0.0329 
     23 CB         31.7308   27.2872    0.9646 C.3       4 UNK        -0.2001 
     24 N          29.3723   27.4199    0.2909 N.am      4 UNK        -0.4303 
     25 C          28.2132   27.9841   -0.0822 C.2       3 UNK         0.5044 
     26 O          27.9541   29.1754    0.0827 O.2       3 UNK        -0.5152 
     27 CA         27.1425   27.0711   -0.7071 C.3       3 UNK         0.0319 
     28 CB         27.2823   27.0487   -2.2364 C.3       3 UNK        -0.2001 
     29 N          27.1753   25.7012   -0.1913 N.am      3 UNK        -0.4354 
     30 C          26.9892   25.3804    1.0986 C.2       2 UNK         0.4964 
     31 O          26.7004   26.2064    1.9618 O.2       2 UNK        -0.5047 
     32 CA         27.2064   23.9159    1.5151 C.3       2 UNK         0.0288 
     33 CB         25.8624   23.1781    1.6116 C.3       2 UNK        -0.2113 
     34 N          28.1079   23.1655    0.6420 N.am      2 UNK        -0.4145 
     35 C          29.3779   23.4869    0.3474 C.2       1 UNK         0.5006 
     36 O          29.9494   24.4931    0.7696 O.2       1 UNK        -0.5103 
     37 C          27.7037   28.9130    4.4779 C.2       5 UNK         0.5055 
     38 O          27.5186   29.7746    5.3390 O.2       5 UNK        -0.5220 
     39 N          26.8093   28.6242    3.5201 N.am      6 UNK        -0.4450 
     40 CA         25.5040   29.2769    3.4043 C.3       6 UNK         0.0367 
     41 CB         24.5416   28.3959    2.5903 C.3       6 UNK        -0.1929 
     42 C          25.5716   30.6916    2.8069 C.2       6 UNK         0.5070 
     43 O          25.0165   31.6155    3.4032 O.2       6 UNK        -0.5237 
     44 N          26.1889   30.8347    1.6252 N.am      7 UNK        -0.4739 
     45 CA         26.1268   32.0619    0.8232 C.3       7 UNK         0.0276 
     46 CB         25.8663   31.6955   -0.6481 C.3       7 UNK        -0.1927 
     47 C          27.3864   32.9313    0.9390 C.2       7 UNK         0.5013 
     48 O          27.2740   34.1486    0.7816 O.2       7 UNK        -0.5193 
     49 N          28.5492   32.3160    1.1922 N.am      8 UNK        -0.4253 
     50 CA         29.8270   33.0088    1.3774 C.3       8 UNK         0.0242 
     51 CB         30.9088   32.3504    0.4945 C.3       8 UNK        -0.2000 
     52 C          30.1719   33.0789    2.8772 C.2       8 UNK         0.4948 
     53 O          29.2801   33.3330    3.6902 O.2       8 UNK        -0.5275 
     54 N          31.4510   32.8901    3.2230 N.am      9 UNK        -0.4246 
     55 CA         31.9756   32.9723    4.5871 C.3       9 UNK         0.0261 
     56 CB         32.7019   34.3193    4.7736 C.3       9 UNK        -0.1959 
     57 C          32.8654   31.7570    4.8919 C.2       9 UNK         0.5033 
     58 O          33.9694   31.9233    5.4145 O.2       9 UNK        -0.5390 
     59 N          32.3596   30.5621    4.5524 N.am      10 UNK        -0.4215 
     60 CA         33.0012   29.2450    4.6481 C.3       10 UNK         0.0240 
     61 CB         33.4994   28.9442    6.0795 C.3       10 UNK        -0.1982 
     62 C          34.0894   29.0394    3.5785 C.2       10 UNK         0.4970 
     63 O          34.3644   29.9328    2.7738 O.2       10 UNK        -0.4916 
     64 N          34.6381   27.8213    3.5520 N.am      11 UNK        -0.4279 
     65 CA         35.6472   27.3673    2.5865 C.3       11 UNK         0.1003 
     66 C          37.0192   28.0671    2.7837 C.2       11 UNK         0.5709 
     67 N          37.7504   28.3148    1.7055 N.am      11 UNK        -0.7358 
     68 O          37.4436   28.3457    3.9041 O.2       11 UNK        -0.4999 
     69 C69        35.8042   25.8250    2.6220 C.3       12 UNK        -0.0954 
     70 S70        34.2349   24.9531    2.2911 S.3       12 UNK        -0.2268 
     71 C71        33.8464   24.3097    3.9476 C.3       12 UNK         0.0203 
     72 H72        26.5486   21.9236   -3.3147 H         1 UNK         0.0888 
     73 H73        27.8762   21.9256   -4.4787 H         1 UNK         0.0888 
     74 H74        27.7573   20.6379   -3.2777 H         1 UNK         0.0888 
     75 H75        29.2271   20.8984   -1.6106 H         1 UNK         0.3017 
     76 H76        30.7935   23.1770   -1.2043 H         1 UNK         0.0873 
     77 H77        31.7401   22.0020    0.6983 H         1 UNK         0.0745 
     78 H78        31.5208   20.8858   -0.6069 H         1 UNK         0.0745 
     79 H79        31.9351   19.9198    2.5394 H         1 UNK         0.0705 
     80 H80        30.4629   19.6743    3.4365 H         1 UNK         0.0705 
     81 H81        33.1523   21.9517    2.8062 H         1 UNK         0.1334 
     82 H82        31.5683   25.1092    5.2194 H         1 UNK         0.1417 
     83 H83        29.0841   21.7738    4.1501 H         1 UNK         0.1562 
     84 H84        29.4647   24.4070    6.5902 H         1 UNK         0.0748 
     85 H85        28.3545   23.2846    5.8639 H         1 UNK         0.0748 
     86 H86        30.0394   26.6522    5.7094 H         1 UNK         0.0940 
     87 H87        28.5614   27.1989    6.4237 H         1 UNK         0.0940 
     88 H88        29.7619   28.8197    4.9182 H         1 UNK         0.0703 
     89 H89        29.2808   26.8404    2.8277 H         1 UNK         0.3081 
     90 H90        30.6754   29.0307    0.3111 H         1 UNK         0.0719 
     91 H91        31.9903   26.9163   -0.0269 H         1 UNK         0.0809 
     92 H92        32.5839   27.8608    1.3257 H         1 UNK         0.0809 
     93 H93        31.6146   26.4249    1.6224 H         1 UNK         0.0809 
     94 H94        29.4939   26.4172    0.1890 H         1 UNK         0.2990 
     95 H95        26.1667   27.4940   -0.4609 H         1 UNK         0.0690 
     96 H96        27.2257   28.0573   -2.6483 H         1 UNK         0.0788 
     97 H97        26.4872   26.4639   -2.6994 H         1 UNK         0.0788 
     98 H98        28.2363   26.6207   -2.5474 H         1 UNK         0.0788 
     99 H99        27.4399   24.9737   -0.8453 H         1 UNK         0.2993 
    100 H100       27.6650   23.9232    2.5035 H         1 UNK         0.0949 
    101 H101       25.3718   23.1041    0.6402 H         1 UNK         0.0767 
    102 H102       25.9906   22.1689    2.0037 H         1 UNK         0.0767 
    103 H103       25.1799   23.7002    2.2841 H         1 UNK         0.0767 
    104 H104       27.7414   22.3158    0.2390 H         1 UNK         0.3013 
    105 H105       26.9845   27.8430    2.8923 H         1 UNK         0.3121 
    106 H106       25.0836   29.3671    4.4087 H         1 UNK         0.0774 
    107 H107       24.8964   28.2403    1.5712 H         1 UNK         0.0815 
    108 H108       23.5538   28.8539    2.5247 H         1 UNK         0.0815 
    109 H109       24.4144   27.4170    3.0528 H         1 UNK         0.0815 
    110 H110       26.6746   30.0474    1.2029 H         1 UNK         0.2987 
    111 H111       25.2858   32.6760    1.1538 H         1 UNK         0.0949 
    112 H112       26.6949   31.1366   -1.0833 H         1 UNK         0.0806 
    113 H113       24.9630   31.0947   -0.7544 H         1 UNK         0.0806 
    114 H114       25.7309   32.5931   -1.2529 H         1 UNK         0.0806 
    115 H115       28.5489   31.3157    1.3420 H         1 UNK         0.3010 
    116 H116       29.7401   34.0450    1.0447 H         1 UNK         0.0829 
    117 H117       30.5755   32.2795   -0.5411 H         1 UNK         0.0813 
    118 H118       31.8267   32.9392    0.4875 H         1 UNK         0.0813 
    119 H119       31.1637   31.3451    0.8240 H         1 UNK         0.0813 
    120 H120       32.1178   32.6421    2.5046 H         1 UNK         0.3038 
    121 H121       31.1579   32.9292    5.3098 H         1 UNK         0.0769 
    122 H122       33.5558   34.4121    4.1016 H         1 UNK         0.0811 
    123 H123       33.0732   34.4274    5.7935 H         1 UNK         0.0811 
    124 H124       32.0329   35.1588    4.5841 H         1 UNK         0.0811 
    125 H125       31.4880   30.5580    4.0262 H         1 UNK         0.3204 
    126 H126       32.2161   28.5230    4.4231 H         1 UNK         0.0748 
    127 H127       33.7444   27.8889    6.2021 H         1 UNK         0.0771 
    128 H128       34.3965   29.5125    6.3272 H         1 UNK         0.0771 
    129 H129       32.7373   29.1813    6.8220 H         1 UNK         0.0771 
    130 H130       34.3742   27.1493    4.2539 H         1 UNK         0.2980 
    131 H131       35.2799   27.6395    1.5946 H         1 UNK         0.0545 
    132 H132       38.6511   28.7539    1.8154 H         1 UNK         0.3459 
    133 H133       37.4185   28.0777    0.7835 H         1 UNK         0.3459 
    134 H134       36.5203   25.5019    1.8642 H         1 UNK         0.0616 
    135 H135       36.2125   25.4993    3.5807 H         1 UNK         0.0616 
    136 H136       33.8769   25.1261    4.6700 H         1 UNK         0.0634 
    137 H137       34.6201   23.6013    4.2477 H         1 UNK         0.0634 
@<TRIPOS>BOND
     1    1    2 1    
     2    1   72 1    
     3    1   73 1    
     4    1   74 1    
     5    2    3 2    
     6    2    4 am   BACKBONE|DICT|INTERRES
     7    4    5 1    
     8    4   75 1    
     9    5    6 1    
    10    5   35 1    
    11    5   76 1    
    12    6    7 1    
    13    6   77 1    
    14    6   78 1    
    15    7    8 1    
    16    8    9 1    
    17    8   79 1    
    18    8   80 1    
    19    9   10 ar   
    20    9   14 ar   
    21   10   11 ar   
    22   10   81 1    
    23   11   12 ar   
    24   11   71 1    
    25   12   13 ar   
    26   12   82 1    
    27   13   14 ar   
    28   13   15 1    
    29   14   83 1    
    30   15   16 1    
    31   15   84 1    
    32   15   85 1    
    33   16   17 1    
    34   17   18 1    
    35   17   86 1    
    36   17   87 1    
    37   18   19 1    
    38   18   37 1    
    39   18   88 1    
    40   19   20 am   BACKBONE|DICT|INTERRES
    41   19   89 1    
    42   20   21 2    
    43   20   22 1    
    44   22   23 1    
    45   22   24 1    
    46   22   90 1    
    47   23   91 1    
    48   23   92 1    
    49   23   93 1    
    50   24   25 am   BACKBONE|DICT|INTERRES
    51   24   94 1    
    52   25   26 2    
    53   25   27 1    
    54   27   28 1    
    55   27   29 1    
    56   27   95 1    
    57   28   96 1    
    58   28   97 1    
    59   28   98 1    
    60   29   30 am   BACKBONE|DICT|INTERRES
    61   29   99 1    
    62   30   31 2    
    63   30   32 1    
    64   32   33 1    
    65   32   34 1    
    66   32  100 1    
    67   33  101 1    
    68   33  102 1    
    69   33  103 1    
    70   34   35 am   BACKBONE|DICT|INTERRES
    71   34  104 1    
    72   35   36 2    
    73   37   38 2    
    74   37   39 am   BACKBONE|DICT|INTERRES
    75   39   40 1    
    76   39  105 1    
    77   40   41 1    
    78   40   42 1    
    79   40  106 1    
    80   41  107 1    
    81   41  108 1    
    82   41  109 1    
    83   42   43 2    
    84   42   44 am   BACKBONE|DICT|INTERRES
    85   44   45 1    
    86   44  110 1    
    87   45   46 1    
    88   45   47 1    
    89   45  111 1    
    90   46  112 1    
    91   46  113 1    
    92   46  114 1    
    93   47   48 2    
    94   47   49 am   BACKBONE|DICT|INTERRES
    95   49   50 1    
    96   49  115 1    
    97   50   51 1    
    98   50   52 1    
    99   50  116 1    
   100   51  117 1    
   101   51  118 1    
   102   51  119 1    
   103   52   53 2    
   104   52   54 am   BACKBONE|DICT|INTERRES
   105   54   55 1    
   106   54  120 1    
   107   55   56 1    
   108   55   57 1    
   109   55  121 1    
   110   56  122 1    
   111   56  123 1    
   112   56  124 1    
   113   57   58 2    
   114   57   59 am   BACKBONE|DICT|INTERRES
   115   59   60 1    
   116   59  125 1    
   117   60   61 1    
   118   60   62 1    
   119   60  126 1    
   120   61  127 1    
   121   61  128 1    
   122   61  129 1    
   123   62   63 2    
   124   62   64 am   BACKBONE|DICT|INTERRES
   125   64   65 1    
   126   64  130 1    
   127   65   66 1    
   128   65   69 1    
   129   65  131 1    
   130   66   67 am   BACKBONE|DICT|INTERRES
   131   66   68 2    
   132   67  132 1    
   133   67  133 1    
   134   69   70 1    
   135   69  134 1    
   136   69  135 1    
   137   70   71 1    
   138   71  136 1    
   139   71  137 1    
@<TRIPOS>SUBSTRUCTURE
     1 UNK         1 GROUP             0       ****    0 ROOT    
