@<TRIPOS>MOLECULE
3R136
137   139    1
SMALL
USER_CHARGES


@<TRIPOS>ATOM
      1 CA         27.8594   21.2283    1.1001 C.3       0 UNK        -0.1979 
      2 C          28.9118   21.7150    0.1150 C.2       0 UNK         0.4864 
      3 O          28.8934   21.3161   -1.0498 O.2       0 UNK        -0.5359 
      4 N          29.8246   22.5823    0.5728 N.am      1 UNK        -0.4318 
      5 CA         30.8785   23.2056   -0.2399 C.3       1 UNK         0.0824 
      6 C6         31.9825   23.8267    0.6492 C.3       12 UNK        -0.0944 
      7 S7         33.0178   22.6060    1.5334 S.3       12 UNK        -0.2672 
      8 C8         31.9920   22.0065    2.9272 C.3       12 UNK         0.0333 
      9 C9         31.2392   23.0833    3.7072 C.ar      12 UNK        -0.0807 
     10 C10        31.8127   24.3321    3.9733 C.ar      12 UNK        -0.0894 
     11 C11        31.0963   25.3121    4.6650 C.ar      12 UNK        -0.0804 
     12 C12        29.8159   25.0206    5.1404 C.ar      12 UNK        -0.0824 
     13 C13        29.2306   23.7763    4.8900 C.ar      12 UNK        -0.0762 
     14 C14        29.9495   22.8116    4.1780 C.ar      12 UNK        -0.0782 
     15 C15        27.8256   23.4682    5.3914 C.3       12 UNK         0.0230 
     16 S16        26.5533   23.7882    4.1235 S.3       12 UNK        -0.2608 
     17 C17        26.4370   25.6106    4.1512 C.3       12 UNK        -0.0989 
     18 CA         26.4331   26.2203    2.7204 C.3       5 UNK         0.0716 
     19 N          25.2368   25.8683    1.9455 N.am      5 UNK        -0.4135 
     20 C          23.9690   26.2207    2.2167 C.2       4 UNK         0.5031 
     21 O          23.6379   26.8580    3.2181 O.2       4 UNK        -0.5229 
     22 CA         22.8882   25.8141    1.1878 C.3       4 UNK         0.0329 
     23 CB         21.6880   26.7855    1.1831 C.3       4 UNK        -0.2001 
     24 N          23.3998   25.6302   -0.1784 N.am      4 UNK        -0.4303 
     25 C          24.0625   26.5336   -0.9148 C.2       3 UNK         0.5044 
     26 O          24.3146   27.6817   -0.5453 O.2       3 UNK        -0.5152 
     27 CA         24.6192   26.0381   -2.2591 C.3       3 UNK         0.0319 
     28 CB         24.0263   26.8434   -3.4267 C.3       3 UNK        -0.2001 
     29 N          26.0823   26.1285   -2.2971 N.am      3 UNK        -0.4354 
     30 C          26.9148   25.5554   -1.4170 C.2       2 UNK         0.4964 
     31 O          26.5459   24.8516   -0.4696 O.2       2 UNK        -0.5047 
     32 CA         28.4076   25.8412   -1.6056 C.3       2 UNK         0.0288 
     33 CB         28.7727   27.2412   -1.0815 C.3       2 UNK        -0.2113 
     34 N          29.1485   24.8402   -0.8511 N.am      2 UNK        -0.4145 
     35 C          30.3155   24.2845   -1.1926 C.2       1 UNK         0.5006 
     36 O          30.9520   24.5962   -2.2008 O.2       1 UNK        -0.5103 
     37 C          26.7370   27.7399    2.7096 C.2       5 UNK         0.5055 
     38 O          27.4624   28.2155    3.5860 O.2       5 UNK        -0.5220 
     39 N          26.2330   28.4867    1.7120 N.am      6 UNK        -0.4450 
     40 CA         26.4530   29.9296    1.5474 C.3       6 UNK         0.0367 
     41 CB         25.2928   30.5267    0.7299 C.3       6 UNK        -0.1929 
     42 C          27.8332   30.2467    0.9334 C.2       6 UNK         0.5070 
     43 O          27.9170   30.9087   -0.1028 O.2       6 UNK        -0.5237 
     44 N          28.8948   29.7472    1.5740 N.am      7 UNK        -0.4739 
     45 CA         30.2911   29.9784    1.2051 C.3       7 UNK         0.0276 
     46 CB         31.1465   28.8583    1.8151 C.3       7 UNK        -0.1927 
     47 C          30.7832   31.3484    1.7014 C.2       7 UNK         0.5013 
     48 O          30.2262   31.8982    2.6559 O.2       7 UNK        -0.5193 
     49 N          31.8447   31.8558    1.0649 N.am      8 UNK        -0.4253 
     50 CA         32.5420   33.0745    1.4745 C.3       8 UNK         0.0242 
     51 CB         33.2668   33.6708    0.2564 C.3       8 UNK        -0.2000 
     52 C          33.5478   32.7759    2.5976 C.2       8 UNK         0.4948 
     53 O          34.1709   31.7096    2.5892 O.2       8 UNK        -0.5275 
     54 N          33.7206   33.7490    3.5044 N.am      9 UNK        -0.4246 
     55 CA         34.6646   33.7529    4.6309 C.3       9 UNK         0.0261 
     56 CB         36.1123   33.8924    4.1039 C.3       9 UNK        -0.1959 
     57 C          34.4674   32.5540    5.5844 C.2       9 UNK         0.5033 
     58 O          33.3443   32.0655    5.7333 O.2       9 UNK        -0.5390 
     59 N          35.5539   32.0861    6.2118 N.am      10 UNK        -0.4215 
     60 CA         35.5924   30.8891    7.0553 C.3       10 UNK         0.0240 
     61 CB         36.7377   31.0336    8.0759 C.3       10 UNK        -0.1982 
     62 C          35.7174   29.6188    6.1908 C.2       10 UNK         0.4970 
     63 O          36.6980   28.8830    6.3169 O.2       10 UNK        -0.4916 
     64 N          34.7299   29.4113    5.3111 N.am      11 UNK        -0.4279 
     65 CA         34.6552   28.3285    4.3180 C.3       11 UNK         0.1003 
     66 C          35.8090   28.3915    3.2752 C.2       11 UNK         0.5709 
     67 N          36.0065   29.5310    2.6245 N.am      11 UNK        -0.7358 
     68 O          36.5264   27.4197    3.0469 O.2       11 UNK        -0.4999 
     69 C69        34.4660   26.9156    4.9507 C.3       12 UNK        -0.0954 
     70 S70        33.0117   26.8023    6.0491 S.3       12 UNK        -0.2268 
     71 C71        31.6655   26.7116    4.8303 C.3       12 UNK         0.0203 
     72 H72        27.9095   21.7614    2.0489 H         1 UNK         0.0888 
     73 H73        26.8625   21.3791    0.6864 H         1 UNK         0.0888 
     74 H74        27.9909   20.1648    1.2971 H         1 UNK         0.0888 
     75 H75        29.8013   22.8673    1.5415 H         1 UNK         0.3017 
     76 H76        31.3312   22.4334   -0.8659 H         1 UNK         0.0873 
     77 H77        31.5562   24.5490    1.3452 H         1 UNK         0.0745 
     78 H78        32.6772   24.4021    0.0333 H         1 UNK         0.0745 
     79 H79        31.2968   21.2614    2.5380 H         1 UNK         0.0705 
     80 H80        32.6415   21.4731    3.6223 H         1 UNK         0.0705 
     81 H81        32.8057   24.5544    3.6102 H         1 UNK         0.1334 
     82 H82        29.2692   25.7743    5.6895 H         1 UNK         0.1417 
     83 H83        29.5001   21.8448    3.9948 H         1 UNK         0.1562 
     84 H84        27.6018   24.0451    6.2902 H         1 UNK         0.0748 
     85 H85        27.7665   22.4195    5.6867 H         1 UNK         0.0748 
     86 H86        27.2677   26.0005    4.7353 H         1 UNK         0.0940 
     87 H87        25.5425   25.8974    4.7051 H         1 UNK         0.0940 
     88 H88        27.2704   25.7771    2.1789 H         1 UNK         0.0703 
     89 H89        25.4250   25.3571    1.0880 H         1 UNK         0.3081 
     90 H90        22.5226   24.8382    1.5104 H         1 UNK         0.0719 
     91 H91        21.9931   27.8023    0.9331 H         1 UNK         0.0809 
     92 H92        20.9294   26.4764    0.4641 H         1 UNK         0.0809 
     93 H93        21.2071   26.8220    2.1615 H         1 UNK         0.0809 
     94 H94        23.2855   24.7012   -0.5610 H         1 UNK         0.2990 
     95 H95        24.3488   24.9888   -2.3943 H         1 UNK         0.0690 
     96 H96        24.3725   26.4644   -4.3884 H         1 UNK         0.0788 
     97 H97        24.2930   27.8996   -3.3652 H         1 UNK         0.0788 
     98 H98        22.9371   26.7826   -3.4285 H         1 UNK         0.0788 
     99 H99        26.4727   26.7164   -3.0193 H         1 UNK         0.2993 
    100 H100       28.6464   25.7623   -2.6687 H         1 UNK         0.0949 
    101 H101       28.2177   28.0211   -1.6045 H         1 UNK         0.0767 
    102 H102       28.5509   27.3388   -0.0185 H         1 UNK         0.0767 
    103 H103       29.8335   27.4515   -1.2194 H         1 UNK         0.0767 
    104 H104       28.6401   24.4616   -0.0626 H         1 UNK         0.3013 
    105 H105       25.6503   28.0456    1.0071 H         1 UNK         0.3121 
    106 H106       26.4292   30.3987    2.5335 H         1 UNK         0.0774 
    107 H107       24.3273   30.2948    1.1799 H         1 UNK         0.0815 
    108 H108       25.3732   31.6130    0.6747 H         1 UNK         0.0815 
    109 H109       25.2845   30.1493   -0.2932 H         1 UNK         0.0815 
    110 H110       28.7210   29.2460    2.4397 H         1 UNK         0.2987 
    111 H111       30.3791   29.9421    0.1167 H         1 UNK         0.0949 
    112 H112       32.1915   28.9500    1.5156 H         1 UNK         0.0806 
    113 H113       31.1141   28.8998    2.9037 H         1 UNK         0.0806 
    114 H114       30.8026   27.8723    1.5011 H         1 UNK         0.0806 
    115 H115       32.2823   31.3152    0.3329 H         1 UNK         0.3010 
    116 H116       31.8098   33.8022    1.8322 H         1 UNK         0.0829 
    117 H117       32.5677   33.9043   -0.5469 H         1 UNK         0.0813 
    118 H118       33.7768   34.5983    0.5204 H         1 UNK         0.0813 
    119 H119       34.0194   32.9880   -0.1404 H         1 UNK         0.0813 
    120 H120       33.1350   34.5695    3.4336 H         1 UNK         0.3038 
    121 H121       34.4355   34.6444    5.2165 H         1 UNK         0.0769 
    122 H122       36.4501   32.9866    3.5981 H         1 UNK         0.0811 
    123 H123       36.8154   34.1097    4.9086 H         1 UNK         0.0811 
    124 H124       36.1921   34.7139    3.3917 H         1 UNK         0.0811 
    125 H125       36.4427   32.5222    6.0125 H         1 UNK         0.3204 
    126 H126       34.6580   30.8106    7.6155 H         1 UNK         0.0748 
    127 H127       36.6014   31.9158    8.7019 H         1 UNK         0.0771 
    128 H128       36.7784   30.1702    8.7415 H         1 UNK         0.0771 
    129 H129       37.7095   31.1157    7.5873 H         1 UNK         0.0771 
    130 H130       33.9949   30.1078    5.2634 H         1 UNK         0.2980 
    131 H131       33.7587   28.5402    3.7360 H         1 UNK         0.0545 
    132 H132       36.7512   29.5862    1.9491 H         1 UNK         0.3459 
    133 H133       35.3767   30.3223    2.7452 H         1 UNK         0.3459 
    134 H134       34.3709   26.1589    4.1713 H         1 UNK         0.0616 
    135 H135       35.3474   26.6373    5.5303 H         1 UNK         0.0616 
    136 H136       30.8831   27.4121    5.1265 H         1 UNK         0.0634 
    137 H137       32.0205   27.0482    3.8582 H         1 UNK         0.0634 
@<TRIPOS>BOND
     1    1    2 1    
     2    1   72 1    
     3    1   73 1    
     4    1   74 1    
     5    2    3 2    
     6    2    4 am   BACKBONE|DICT|INTERRES
     7    4    5 1    
     8    4   75 1    
     9    5    6 1    
    10    5   35 1    
    11    5   76 1    
    12    6    7 1    
    13    6   77 1    
    14    6   78 1    
    15    7    8 1    
    16    8    9 1    
    17    8   79 1    
    18    8   80 1    
    19    9   10 ar   
    20    9   14 ar   
    21   10   11 ar   
    22   10   81 1    
    23   11   12 ar   
    24   11   71 1    
    25   12   13 ar   
    26   12   82 1    
    27   13   14 ar   
    28   13   15 1    
    29   14   83 1    
    30   15   16 1    
    31   15   84 1    
    32   15   85 1    
    33   16   17 1    
    34   17   18 1    
    35   17   86 1    
    36   17   87 1    
    37   18   19 1    
    38   18   37 1    
    39   18   88 1    
    40   19   20 am   BACKBONE|DICT|INTERRES
    41   19   89 1    
    42   20   21 2    
    43   20   22 1    
    44   22   23 1    
    45   22   24 1    
    46   22   90 1    
    47   23   91 1    
    48   23   92 1    
    49   23   93 1    
    50   24   25 am   BACKBONE|DICT|INTERRES
    51   24   94 1    
    52   25   26 2    
    53   25   27 1    
    54   27   28 1    
    55   27   29 1    
    56   27   95 1    
    57   28   96 1    
    58   28   97 1    
    59   28   98 1    
    60   29   30 am   BACKBONE|DICT|INTERRES
    61   29   99 1    
    62   30   31 2    
    63   30   32 1    
    64   32   33 1    
    65   32   34 1    
    66   32  100 1    
    67   33  101 1    
    68   33  102 1    
    69   33  103 1    
    70   34   35 am   BACKBONE|DICT|INTERRES
    71   34  104 1    
    72   35   36 2    
    73   37   38 2    
    74   37   39 am   BACKBONE|DICT|INTERRES
    75   39   40 1    
    76   39  105 1    
    77   40   41 1    
    78   40   42 1    
    79   40  106 1    
    80   41  107 1    
    81   41  108 1    
    82   41  109 1    
    83   42   43 2    
    84   42   44 am   BACKBONE|DICT|INTERRES
    85   44   45 1    
    86   44  110 1    
    87   45   46 1    
    88   45   47 1    
    89   45  111 1    
    90   46  112 1    
    91   46  113 1    
    92   46  114 1    
    93   47   48 2    
    94   47   49 am   BACKBONE|DICT|INTERRES
    95   49   50 1    
    96   49  115 1    
    97   50   51 1    
    98   50   52 1    
    99   50  116 1    
   100   51  117 1    
   101   51  118 1    
   102   51  119 1    
   103   52   53 2    
   104   52   54 am   BACKBONE|DICT|INTERRES
   105   54   55 1    
   106   54  120 1    
   107   55   56 1    
   108   55   57 1    
   109   55  121 1    
   110   56  122 1    
   111   56  123 1    
   112   56  124 1    
   113   57   58 2    
   114   57   59 am   BACKBONE|DICT|INTERRES
   115   59   60 1    
   116   59  125 1    
   117   60   61 1    
   118   60   62 1    
   119   60  126 1    
   120   61  127 1    
   121   61  128 1    
   122   61  129 1    
   123   62   63 2    
   124   62   64 am   BACKBONE|DICT|INTERRES
   125   64   65 1    
   126   64  130 1    
   127   65   66 1    
   128   65   69 1    
   129   65  131 1    
   130   66   67 am   BACKBONE|DICT|INTERRES
   131   66   68 2    
   132   67  132 1    
   133   67  133 1    
   134   69   70 1    
   135   69  134 1    
   136   69  135 1    
   137   70   71 1    
   138   71  136 1    
   139   71  137 1    
@<TRIPOS>SUBSTRUCTURE
     1 UNK         1 GROUP             0       ****    0 ROOT    
