@<TRIPOS>MOLECULE
3R136
137   139    1
SMALL
USER_CHARGES


@<TRIPOS>ATOM
      1 CA         32.2607   20.1310   -1.3193 C.3       0 UNK        -0.1979 
      2 C          31.7936   21.5725   -1.1822 C.2       0 UNK         0.4864 
      3 O          31.8303   22.3220   -2.1587 O.2       0 UNK        -0.5359 
      4 N          31.3568   21.9633    0.0222 N.am      1 UNK        -0.4318 
      5 CA         30.8552   23.3046    0.3425 C.3       1 UNK         0.0824 
      6 C6         30.7866   23.5448    1.8707 C.3       12 UNK        -0.0944 
      7 S7         29.8172   22.2963    2.7895 S.3       12 UNK        -0.2672 
      8 C8         30.8546   22.0665    4.2746 C.3       12 UNK         0.0333 
      9 C9         31.0269   23.3581    5.0660 C.ar      12 UNK        -0.0807 
     10 C10        32.3042   23.8257    5.3960 C.ar      12 UNK        -0.0894 
     11 C11        32.4605   25.0280    6.0953 C.ar      12 UNK        -0.0804 
     12 C12        31.3302   25.7656    6.4584 C.ar      12 UNK        -0.0824 
     13 C13        30.0509   25.3068    6.1342 C.ar      12 UNK        -0.0762 
     14 C14        29.9053   24.0942    5.4581 C.ar      12 UNK        -0.0782 
     15 C15        28.8231   26.1351    6.4750 C.3       12 UNK         0.0230 
     16 S16        28.1070   26.8845    4.9792 S.3       12 UNK        -0.2608 
     17 C17        29.4878   27.9538    4.4330 C.3       12 UNK        -0.0989 
     18 CA         29.0737   29.0008    3.3722 C.3       5 UNK         0.0716 
     19 N          28.5187   28.3502    2.1834 N.am      5 UNK        -0.4135 
     20 C          28.1855   28.9240    1.0196 C.2       4 UNK         0.5031 
     21 O          28.3322   30.1211    0.7767 O.2       4 UNK        -0.5229 
     22 CA         27.5704   28.0104   -0.0584 C.3       4 UNK         0.0329 
     23 CB         28.5302   27.8642   -1.2501 C.3       4 UNK        -0.2001 
     24 N          27.1995   26.6763    0.4345 N.am      4 UNK        -0.4303 
     25 C          26.1667   26.4276    1.2576 C.2       3 UNK         0.5044 
     26 O          25.4276   27.3162    1.6850 O.2       3 UNK        -0.5152 
     27 CA         25.9468   24.9715    1.7284 C.3       3 UNK         0.0319 
     28 CB         24.4550   24.6417    1.9477 C.3       3 UNK        -0.2001 
     29 N          26.5940   23.9552    0.8878 N.am      3 UNK        -0.4354 
     30 C          26.3536   23.6863   -0.4063 C.2       2 UNK         0.4964 
     31 O          25.4576   24.2207   -1.0614 O.2       2 UNK        -0.5047 
     32 CA         27.2972   22.6677   -1.0879 C.3       2 UNK         0.0288 
     33 CB         27.3990   22.8921   -2.6118 C.3       2 UNK        -0.2113 
     34 N          28.6457   22.6055   -0.4993 N.am      2 UNK        -0.4145 
     35 C          29.5031   23.6266   -0.3258 C.2       1 UNK         0.5006 
     36 O          29.2468   24.7908   -0.6319 O.2       1 UNK        -0.5103 
     37 C          28.1753   30.0993    3.9870 C.2       5 UNK         0.5055 
     38 O          28.6797   30.9280    4.7463 O.2       5 UNK        -0.5220 
     39 N          26.8747   30.1118    3.6575 N.am      6 UNK        -0.4450 
     40 CA         25.8858   31.1086    4.0851 C.3       6 UNK         0.0367 
     41 CB         24.4816   30.4879    3.9630 C.3       6 UNK        -0.1929 
     42 C          26.0105   32.4495    3.3235 C.2       6 UNK         0.5070 
     43 O          25.0021   33.0159    2.8986 O.2       6 UNK        -0.5237 
     44 N          27.2455   32.9302    3.1611 N.am      7 UNK        -0.4739 
     45 CA         27.6492   34.1497    2.4697 C.3       7 UNK         0.0276 
     46 CB         27.4144   34.0191    0.9460 C.3       7 UNK        -0.1927 
     47 C          29.1124   34.3940    2.8670 C.2       7 UNK         0.5013 
     48 O          29.3749   34.6663    4.0401 O.2       7 UNK        -0.5193 
     49 N          30.0412   34.2424    1.9145 N.am      8 UNK        -0.4253 
     50 CA         31.4758   34.1008    2.1730 C.3       8 UNK         0.0242 
     51 CB         32.2443   34.3896    0.8725 C.3       8 UNK        -0.2000 
     52 C          31.7831   32.6788    2.6754 C.2       8 UNK         0.4948 
     53 O          30.9802   31.7687    2.4577 O.2       8 UNK        -0.5275 
     54 N          32.9529   32.4898    3.3003 N.am      9 UNK        -0.4246 
     55 CA         33.4238   31.2142    3.8597 C.3       9 UNK         0.0261 
     56 CB         34.5619   31.4963    4.8588 C.3       9 UNK        -0.1959 
     57 C          33.8265   30.1796    2.7845 C.2       9 UNK         0.5033 
     58 O          34.9630   29.7007    2.7716 O.2       9 UNK        -0.5390 
     59 N          32.8858   29.8504    1.8933 N.am      10 UNK        -0.4215 
     60 CA         33.0129   28.8722    0.8145 C.3       10 UNK         0.0240 
     61 CB         31.9620   29.1878   -0.2643 C.3       10 UNK        -0.1982 
     62 C          32.9083   27.4308    1.3462 C.2       10 UNK         0.4970 
     63 O          31.9371   26.7302    1.0586 O.2       10 UNK        -0.4916 
     64 N          33.9165   27.0240    2.1240 N.am      11 UNK        -0.4279 
     65 CA         34.0616   25.6761    2.6952 C.3       11 UNK         0.1003 
     66 C          34.4617   24.5732    1.6694 C.2       11 UNK         0.5709 
     67 N          34.7940   24.8994    0.4259 N.am      11 UNK        -0.7358 
     68 O          34.4640   23.3930    2.0094 O.2       11 UNK        -0.4999 
     69 C69        35.0277   25.6753    3.9079 C.3       12 UNK        -0.0954 
     70 S70        34.4664   26.7556    5.2666 S.3       12 UNK        -0.2268 
     71 C71        33.8445   25.5381    6.4691 C.3       12 UNK         0.0203 
     72 H72        31.6628   19.6125   -2.0684 H         1 UNK         0.0888 
     73 H73        33.3030   20.1034   -1.6358 H         1 UNK         0.0888 
     74 H74        32.1773   19.5838   -0.3804 H         1 UNK         0.0888 
     75 H75        31.3554   21.3082    0.7916 H         1 UNK         0.3017 
     76 H76        31.5723   24.0222   -0.0638 H         1 UNK         0.0873 
     77 H77        31.8000   23.5426    2.2669 H         1 UNK         0.0745 
     78 H78        30.3910   24.5377    2.0960 H         1 UNK         0.0745 
     79 H79        31.8219   21.6628    3.9710 H         1 UNK         0.0705 
     80 H80        30.3924   21.3161    4.9171 H         1 UNK         0.0705 
     81 H81        33.1777   23.2600    5.1014 H         1 UNK         0.1334 
     82 H82        31.4499   26.7045    6.9817 H         1 UNK         0.1417 
     83 H83        28.9151   23.7434    5.1999 H         1 UNK         0.1562 
     84 H84        29.0644   26.9185    7.1952 H         1 UNK         0.0748 
     85 H85        28.0742   25.4995    6.9498 H         1 UNK         0.0748 
     86 H86        30.2734   27.3146    4.0245 H         1 UNK         0.0940 
     87 H87        29.9321   28.4448    5.3014 H         1 UNK         0.0940 
     88 H88        29.9844   29.5009    3.0434 H         1 UNK         0.0703 
     89 H89        28.3510   27.3599    2.2767 H         1 UNK         0.3081 
     90 H90        26.6622   28.5008   -0.4149 H         1 UNK         0.0719 
     91 H91        28.7589   28.8357   -1.6904 H         1 UNK         0.0809 
     92 H92        28.0985   27.2442   -2.0361 H         1 UNK         0.0809 
     93 H93        29.4770   27.4134   -0.9498 H         1 UNK         0.0809 
     94 H94        27.7820   25.9058    0.1172 H         1 UNK         0.2990 
     95 H95        26.4385   24.9043    2.7003 H         1 UNK         0.0690 
     96 H96        24.3218   23.6182    2.2981 H         1 UNK         0.0788 
     97 H97        23.8739   24.7626    1.0331 H         1 UNK         0.0788 
     98 H98        24.0149   25.2984    2.6992 H         1 UNK         0.0788 
     99 H99        27.3540   23.4538    1.3274 H         1 UNK         0.2993 
    100 H100       26.8447   21.6882   -0.9261 H         1 UNK         0.0949 
    101 H101       26.4227   22.8040   -3.0902 H         1 UNK         0.0767 
    102 H102       27.7897   23.8829   -2.8469 H         1 UNK         0.0767 
    103 H103       28.0535   22.1554   -3.0780 H         1 UNK         0.0767 
    104 H104       28.9437   21.6939   -0.1806 H         1 UNK         0.3013 
    105 H105       26.5452   29.4025    3.0171 H         1 UNK         0.3121 
    106 H106       26.0579   31.3308    5.1403 H         1 UNK         0.0774 
    107 H107       23.7161   31.1691    4.3370 H         1 UNK         0.0815 
    108 H108       24.2345   30.2539    2.9266 H         1 UNK         0.0815 
    109 H109       24.4025   29.5675    4.5419 H         1 UNK         0.0815 
    110 H110       28.0046   32.4165    3.6026 H         1 UNK         0.2987 
    111 H111       27.0605   34.9862    2.8515 H         1 UNK         0.0949 
    112 H112       26.3516   33.9430    0.7164 H         1 UNK         0.0806 
    113 H113       27.7871   34.8933    0.4103 H         1 UNK         0.0806 
    114 H114       27.8994   33.1334    0.5323 H         1 UNK         0.0806 
    115 H115       29.7266   33.9616    0.9974 H         1 UNK         0.3010 
    116 H116       31.7780   34.8202    2.9374 H         1 UNK         0.0829 
    117 H117       32.0258   35.3895    0.4968 H         1 UNK         0.0813 
    118 H118       33.3221   34.3343    1.0306 H         1 UNK         0.0813 
    119 H119       31.9938   33.6743    0.0876 H         1 UNK         0.0813 
    120 H120       33.5782   33.2769    3.4008 H         1 UNK         0.3038 
    121 H121       32.5995   30.7705    4.4230 H         1 UNK         0.0769 
    122 H122       35.4251   31.9498    4.3700 H         1 UNK         0.0811 
    123 H123       34.9026   30.5743    5.3327 H         1 UNK         0.0811 
    124 H124       34.2356   32.1645    5.6559 H         1 UNK         0.0811 
    125 H125       31.9949   30.3393    1.9737 H         1 UNK         0.3204 
    126 H126       33.9987   28.9810    0.3572 H         1 UNK         0.0748 
    127 H127       32.0098   28.4699   -1.0842 H         1 UNK         0.0771 
    128 H128       30.9519   29.1564    0.1419 H         1 UNK         0.0771 
    129 H129       32.1171   30.1791   -0.6907 H         1 UNK         0.0771 
    130 H130       34.6356   27.6981    2.3633 H         1 UNK         0.2980 
    131 H131       33.0780   25.3853    3.0667 H         1 UNK         0.0545 
    132 H132       34.8024   25.8621    0.1324 H         1 UNK         0.3459 
    133 H133       35.0488   24.1711   -0.2218 H         1 UNK         0.3459 
    134 H134       36.0190   26.0110    3.5985 H         1 UNK         0.0616 
    135 H135       35.1639   24.6647    4.2965 H         1 UNK         0.0616 
    136 H136       33.8024   26.0127    7.4506 H         1 UNK         0.0634 
    137 H137       34.5503   24.7119    6.5666 H         1 UNK         0.0634 
@<TRIPOS>BOND
     1    1    2 1    
     2    1   72 1    
     3    1   73 1    
     4    1   74 1    
     5    2    3 2    
     6    2    4 am   BACKBONE|DICT|INTERRES
     7    4    5 1    
     8    4   75 1    
     9    5    6 1    
    10    5   35 1    
    11    5   76 1    
    12    6    7 1    
    13    6   77 1    
    14    6   78 1    
    15    7    8 1    
    16    8    9 1    
    17    8   79 1    
    18    8   80 1    
    19    9   10 ar   
    20    9   14 ar   
    21   10   11 ar   
    22   10   81 1    
    23   11   12 ar   
    24   11   71 1    
    25   12   13 ar   
    26   12   82 1    
    27   13   14 ar   
    28   13   15 1    
    29   14   83 1    
    30   15   16 1    
    31   15   84 1    
    32   15   85 1    
    33   16   17 1    
    34   17   18 1    
    35   17   86 1    
    36   17   87 1    
    37   18   19 1    
    38   18   37 1    
    39   18   88 1    
    40   19   20 am   BACKBONE|DICT|INTERRES
    41   19   89 1    
    42   20   21 2    
    43   20   22 1    
    44   22   23 1    
    45   22   24 1    
    46   22   90 1    
    47   23   91 1    
    48   23   92 1    
    49   23   93 1    
    50   24   25 am   BACKBONE|DICT|INTERRES
    51   24   94 1    
    52   25   26 2    
    53   25   27 1    
    54   27   28 1    
    55   27   29 1    
    56   27   95 1    
    57   28   96 1    
    58   28   97 1    
    59   28   98 1    
    60   29   30 am   BACKBONE|DICT|INTERRES
    61   29   99 1    
    62   30   31 2    
    63   30   32 1    
    64   32   33 1    
    65   32   34 1    
    66   32  100 1    
    67   33  101 1    
    68   33  102 1    
    69   33  103 1    
    70   34   35 am   BACKBONE|DICT|INTERRES
    71   34  104 1    
    72   35   36 2    
    73   37   38 2    
    74   37   39 am   BACKBONE|DICT|INTERRES
    75   39   40 1    
    76   39  105 1    
    77   40   41 1    
    78   40   42 1    
    79   40  106 1    
    80   41  107 1    
    81   41  108 1    
    82   41  109 1    
    83   42   43 2    
    84   42   44 am   BACKBONE|DICT|INTERRES
    85   44   45 1    
    86   44  110 1    
    87   45   46 1    
    88   45   47 1    
    89   45  111 1    
    90   46  112 1    
    91   46  113 1    
    92   46  114 1    
    93   47   48 2    
    94   47   49 am   BACKBONE|DICT|INTERRES
    95   49   50 1    
    96   49  115 1    
    97   50   51 1    
    98   50   52 1    
    99   50  116 1    
   100   51  117 1    
   101   51  118 1    
   102   51  119 1    
   103   52   53 2    
   104   52   54 am   BACKBONE|DICT|INTERRES
   105   54   55 1    
   106   54  120 1    
   107   55   56 1    
   108   55   57 1    
   109   55  121 1    
   110   56  122 1    
   111   56  123 1    
   112   56  124 1    
   113   57   58 2    
   114   57   59 am   BACKBONE|DICT|INTERRES
   115   59   60 1    
   116   59  125 1    
   117   60   61 1    
   118   60   62 1    
   119   60  126 1    
   120   61  127 1    
   121   61  128 1    
   122   61  129 1    
   123   62   63 2    
   124   62   64 am   BACKBONE|DICT|INTERRES
   125   64   65 1    
   126   64  130 1    
   127   65   66 1    
   128   65   69 1    
   129   65  131 1    
   130   66   67 am   BACKBONE|DICT|INTERRES
   131   66   68 2    
   132   67  132 1    
   133   67  133 1    
   134   69   70 1    
   135   69  134 1    
   136   69  135 1    
   137   70   71 1    
   138   71  136 1    
   139   71  137 1    
@<TRIPOS>SUBSTRUCTURE
     1 UNK         1 GROUP             0       ****    0 ROOT    
