@<TRIPOS>MOLECULE
3R136
137   139    1
SMALL
USER_CHARGES


@<TRIPOS>ATOM
      1 CA         28.1129   19.0821   -1.5619 C.3       0 UNK        -0.1979 
      2 C          29.0438   20.0167   -0.8035 C.2       0 UNK         0.4864 
      3 O          30.2598   19.8180   -0.8243 O.2       0 UNK        -0.5359 
      4 N          28.4820   21.0270   -0.1272 N.am      1 UNK        -0.4318 
      5 CA         29.2184   22.0505    0.6216 C.3       1 UNK         0.0824 
      6 C6         28.2820   22.8825    1.5272 C.3       12 UNK        -0.0944 
      7 S7         27.4680   21.8660    2.8032 S.3       12 UNK        -0.2672 
      8 C8         28.6503   21.9877    4.1841 C.3       12 UNK         0.0333 
      9 C9         28.7981   23.4165    4.6861 C.ar      12 UNK        -0.0807 
     10 C10        30.0029   24.1047    4.5194 C.ar      12 UNK        -0.0894 
     11 C11        30.1364   25.4216    4.9685 C.ar      12 UNK        -0.0804 
     12 C12        29.0551   26.0502    5.5949 C.ar      12 UNK        -0.0824 
     13 C13        27.8460   25.3675    5.7709 C.ar      12 UNK        -0.0762 
     14 C14        27.7263   24.0509    5.3175 C.ar      12 UNK        -0.0782 
     15 C15        26.6666   26.0325    6.4677 C.3       12 UNK         0.0230 
     16 S16        26.0637   27.5157    5.6008 S.3       12 UNK        -0.2608 
     17 C17        25.7199   26.9109    3.9071 C.3       12 UNK        -0.0989 
     18 CA         26.5837   27.6656    2.8574 C.3       5 UNK         0.0716 
     19 N          26.9076   26.8646    1.6744 N.am      5 UNK        -0.4135 
     20 C          26.0605   26.4736    0.7124 C.2       4 UNK         0.5031 
     21 O          24.8362   26.5739    0.8050 O.2       4 UNK        -0.5229 
     22 CA         26.6797   25.9012   -0.5869 C.3       4 UNK         0.0329 
     23 CB         25.9099   26.3835   -1.8348 C.3       4 UNK        -0.2001 
     24 N          28.1240   26.1459   -0.7689 N.am      4 UNK        -0.4303 
     25 C          28.7477   27.3375   -0.7921 C.2       3 UNK         0.5044 
     26 O          28.1751   28.4047   -0.5712 O.2       3 UNK        -0.5152 
     27 CA         30.2598   27.3434   -1.0621 C.3       3 UNK         0.0319 
     28 CB         30.9705   28.5363   -0.4013 C.3       3 UNK        -0.2001 
     29 N          30.8904   26.0975   -0.6237 N.am      3 UNK        -0.4354 
     30 C          31.7556   25.3852   -1.3550 C.2       2 UNK         0.4964 
     31 O          32.1737   25.7317   -2.4604 O.2       2 UNK        -0.5047 
     32 CA         32.2275   24.0425   -0.7682 C.3       2 UNK         0.0288 
     33 CB         33.5031   24.2468    0.0660 C.3       2 UNK        -0.2113 
     34 N          31.2401   23.3105    0.0383 N.am      2 UNK        -0.4145 
     35 C          29.9955   22.9745   -0.3360 C.2       1 UNK         0.5006 
     36 O          29.4418   23.3858   -1.3594 O.2       1 UNK        -0.5103 
     37 C          26.0367   29.0710    2.4921 C.2       5 UNK         0.5055 
     38 O          25.1590   29.5901    3.1852 O.2       5 UNK        -0.5220 
     39 N          26.5720   29.6876    1.4238 N.am      6 UNK        -0.4450 
     40 CA         26.3272   31.0962    1.0836 C.3       6 UNK         0.0367 
     41 CB         26.9271   31.4092   -0.2964 C.3       6 UNK        -0.1929 
     42 C          26.8957   32.0484    2.1527 C.2       6 UNK         0.5070 
     43 O          26.2631   33.0510    2.4852 O.2       6 UNK        -0.5237 
     44 N          28.0547   31.6737    2.7016 N.am      7 UNK        -0.4739 
     45 CA         28.6830   32.2188    3.8963 C.3       7 UNK         0.0276 
     46 CB         29.4026   33.5422    3.5798 C.3       7 UNK        -0.1927 
     47 C          29.6684   31.1540    4.3870 C.2       7 UNK         0.5013 
     48 O          30.2086   30.4114    3.5629 O.2       7 UNK        -0.5193 
     49 N          29.9167   31.1050    5.7015 N.am      8 UNK        -0.4253 
     50 CA         30.8601   30.1584    6.3095 C.3       8 UNK         0.0242 
     51 CB         30.7081   30.1813    7.8385 C.3       8 UNK        -0.2000 
     52 C          32.3212   30.4175    5.9007 C.2       8 UNK         0.4948 
     53 O          33.0827   29.4659    5.7315 O.2       8 UNK        -0.5275 
     54 N          32.6744   31.6984    5.7200 N.am      9 UNK        -0.4246 
     55 CA         33.9934   32.1411    5.2628 C.3       9 UNK         0.0261 
     56 CB         34.1452   33.6464    5.5350 C.3       9 UNK        -0.1959 
     57 C          34.2580   31.8371    3.7777 C.2       9 UNK         0.5033 
     58 O          35.4172   31.6553    3.4018 O.2       9 UNK        -0.5390 
     59 N          33.1949   31.7734    2.9599 N.am      10 UNK        -0.4215 
     60 CA         33.2715   31.5102    1.5184 C.3       10 UNK         0.0240 
     61 CB         31.9161   31.8074    0.8562 C.3       10 UNK        -0.1982 
     62 C          33.7500   30.0888    1.1777 C.2       10 UNK         0.4970 
     63 O          34.2827   29.8867    0.0861 O.2       10 UNK        -0.4916 
     64 N          33.5822   29.1449    2.1143 N.am      11 UNK        -0.4279 
     65 CA         34.1346   27.7851    2.0408 C.3       11 UNK         0.1003 
     66 C          35.6924   27.7199    2.0561 C.2       11 UNK         0.5709 
     67 N          36.4075   28.7690    2.4506 N.am      11 UNK        -0.7358 
     68 O          36.2628   26.6925    1.6979 O.2       11 UNK        -0.4999 
     69 C69        33.5576   26.8756    3.1547 C.3       12 UNK        -0.0954 
     70 S70        31.7473   26.6713    3.0876 S.3       12 UNK        -0.2268 
     71 C71        31.4664   26.1385    4.8045 C.3       12 UNK         0.0203 
     72 H72        28.3383   19.1122   -2.6277 H         1 UNK         0.0888 
     73 H73        28.2440   18.0578   -1.2139 H         1 UNK         0.0888 
     74 H74        27.0657   19.3536   -1.4288 H         1 UNK         0.0888 
     75 H75        27.4792   21.1424   -0.1488 H         1 UNK         0.3017 
     76 H76        29.9413   21.5341    1.2572 H         1 UNK         0.0873 
     77 H77        28.8196   23.7047    2.0008 H         1 UNK         0.0745 
     78 H78        27.4960   23.3483    0.9335 H         1 UNK         0.0745 
     79 H79        28.3039   21.3547    5.0023 H         1 UNK         0.0705 
     80 H80        29.6126   21.5813    3.8692 H         1 UNK         0.0705 
     81 H81        30.8405   23.6192    4.0375 H         1 UNK         0.1334 
     82 H82        29.1510   27.0673    5.9494 H         1 UNK         0.1417 
     83 H83        26.7953   23.5155    5.4468 H         1 UNK         0.1562 
     84 H84        26.9653   26.3139    7.4783 H         1 UNK         0.0748 
     85 H85        25.8350   25.3348    6.5793 H         1 UNK         0.0748 
     86 H86        24.6544   27.0103    3.6916 H         1 UNK         0.0940 
     87 H87        25.9243   25.8409    3.8616 H         1 UNK         0.0940 
     88 H88        27.5584   27.8539    3.3117 H         1 UNK         0.0703 
     89 H89        27.8925   26.7330    1.5009 H         1 UNK         0.3081 
     90 H90        26.5560   24.8200   -0.5317 H         1 UNK         0.0719 
     91 H91        24.8615   26.0855   -1.7928 H         1 UNK         0.0809 
     92 H92        25.9352   27.4698   -1.9292 H         1 UNK         0.0809 
     93 H93        26.3269   25.9576   -2.7474 H         1 UNK         0.0809 
     94 H94        28.6757   25.3231   -0.9913 H         1 UNK         0.2990 
     95 H95        30.3579   27.4518   -2.1441 H         1 UNK         0.0690 
     96 H96        30.8807   28.5115    0.6854 H         1 UNK         0.0788 
     97 H97        30.5569   29.4849   -0.7455 H         1 UNK         0.0788 
     98 H98        32.0299   28.5387   -0.6538 H         1 UNK         0.0788 
     99 H99        30.6294   25.7511    0.2887 H         1 UNK         0.2993 
    100 H100       32.4764   23.4017   -1.6168 H         1 UNK         0.0949 
    101 H101       34.2599   24.7953   -0.4972 H         1 UNK         0.0767 
    102 H102       33.3008   24.8128    0.9751 H         1 UNK         0.0767 
    103 H103       33.9468   23.2940    0.3555 H         1 UNK         0.0767 
    104 H104       31.5879   22.9373    0.9097 H         1 UNK         0.3013 
    105 H105       27.2300   29.1872    0.8285 H         1 UNK         0.3121 
    106 H106       25.2475   31.2520    1.0333 H         1 UNK         0.0774 
    107 H107       28.0077   31.2597   -0.3111 H         1 UNK         0.0815 
    108 H108       26.7357   32.4450   -0.5794 H         1 UNK         0.0815 
    109 H109       26.4931   30.7748   -1.0696 H         1 UNK         0.0815 
    110 H110       28.5090   30.8332    2.3636 H         1 UNK         0.2987 
    111 H111       27.9182   32.3804    4.6592 H         1 UNK         0.0949 
    112 H112       30.1639   33.4139    2.8110 H         1 UNK         0.0806 
    113 H113       28.7026   34.3009    3.2298 H         1 UNK         0.0806 
    114 H114       29.8947   33.9440    4.4662 H         1 UNK         0.0806 
    115 H115       29.4365   31.7409    6.3229 H         1 UNK         0.3010 
    116 H116       30.5976   29.1587    5.9582 H         1 UNK         0.0829 
    117 H117       31.3871   29.4675    8.3074 H         1 UNK         0.0813 
    118 H118       30.9310   31.1646    8.2546 H         1 UNK         0.0813 
    119 H119       29.6966   29.9088    8.1407 H         1 UNK         0.0813 
    120 H120       31.9877   32.4158    5.9020 H         1 UNK         0.3038 
    121 H121       34.7505   31.6110    5.8451 H         1 UNK         0.0769 
    122 H122       33.4048   34.2343    4.9909 H         1 UNK         0.0811 
    123 H123       35.1307   34.0002    5.2281 H         1 UNK         0.0811 
    124 H124       34.0398   33.8709    6.5967 H         1 UNK         0.0811 
    125 H125       32.2713   31.8726    3.3554 H         1 UNK         0.3204 
    126 H126       34.0060   32.2005    1.0980 H         1 UNK         0.0748 
    127 H127       31.9650   31.6383   -0.2204 H         1 UNK         0.0771 
    128 H128       31.1224   31.1710    1.2466 H         1 UNK         0.0771 
    129 H129       31.6222   32.8464    1.0016 H         1 UNK         0.0771 
    130 H130       33.1196   29.3878    2.9784 H         1 UNK         0.2980 
    131 H131       33.8248   27.3694    1.0801 H         1 UNK         0.0545 
    132 H132       37.4129   28.7042    2.4493 H         1 UNK         0.3459 
    133 H133       35.9599   29.6290    2.7403 H         1 UNK         0.3459 
    134 H134       33.9943   25.8765    3.1019 H         1 UNK         0.0616 
    135 H135       33.8310   27.2746    4.1336 H         1 UNK         0.0616 
    136 H136       31.5281   27.0052    5.4632 H         1 UNK         0.0634 
    137 H137       32.2675   25.4642    5.1112 H         1 UNK         0.0634 
@<TRIPOS>BOND
     1    1    2 1    
     2    1   72 1    
     3    1   73 1    
     4    1   74 1    
     5    2    3 2    
     6    2    4 am   BACKBONE|DICT|INTERRES
     7    4    5 1    
     8    4   75 1    
     9    5    6 1    
    10    5   35 1    
    11    5   76 1    
    12    6    7 1    
    13    6   77 1    
    14    6   78 1    
    15    7    8 1    
    16    8    9 1    
    17    8   79 1    
    18    8   80 1    
    19    9   10 ar   
    20    9   14 ar   
    21   10   11 ar   
    22   10   81 1    
    23   11   12 ar   
    24   11   71 1    
    25   12   13 ar   
    26   12   82 1    
    27   13   14 ar   
    28   13   15 1    
    29   14   83 1    
    30   15   16 1    
    31   15   84 1    
    32   15   85 1    
    33   16   17 1    
    34   17   18 1    
    35   17   86 1    
    36   17   87 1    
    37   18   19 1    
    38   18   37 1    
    39   18   88 1    
    40   19   20 am   BACKBONE|DICT|INTERRES
    41   19   89 1    
    42   20   21 2    
    43   20   22 1    
    44   22   23 1    
    45   22   24 1    
    46   22   90 1    
    47   23   91 1    
    48   23   92 1    
    49   23   93 1    
    50   24   25 am   BACKBONE|DICT|INTERRES
    51   24   94 1    
    52   25   26 2    
    53   25   27 1    
    54   27   28 1    
    55   27   29 1    
    56   27   95 1    
    57   28   96 1    
    58   28   97 1    
    59   28   98 1    
    60   29   30 am   BACKBONE|DICT|INTERRES
    61   29   99 1    
    62   30   31 2    
    63   30   32 1    
    64   32   33 1    
    65   32   34 1    
    66   32  100 1    
    67   33  101 1    
    68   33  102 1    
    69   33  103 1    
    70   34   35 am   BACKBONE|DICT|INTERRES
    71   34  104 1    
    72   35   36 2    
    73   37   38 2    
    74   37   39 am   BACKBONE|DICT|INTERRES
    75   39   40 1    
    76   39  105 1    
    77   40   41 1    
    78   40   42 1    
    79   40  106 1    
    80   41  107 1    
    81   41  108 1    
    82   41  109 1    
    83   42   43 2    
    84   42   44 am   BACKBONE|DICT|INTERRES
    85   44   45 1    
    86   44  110 1    
    87   45   46 1    
    88   45   47 1    
    89   45  111 1    
    90   46  112 1    
    91   46  113 1    
    92   46  114 1    
    93   47   48 2    
    94   47   49 am   BACKBONE|DICT|INTERRES
    95   49   50 1    
    96   49  115 1    
    97   50   51 1    
    98   50   52 1    
    99   50  116 1    
   100   51  117 1    
   101   51  118 1    
   102   51  119 1    
   103   52   53 2    
   104   52   54 am   BACKBONE|DICT|INTERRES
   105   54   55 1    
   106   54  120 1    
   107   55   56 1    
   108   55   57 1    
   109   55  121 1    
   110   56  122 1    
   111   56  123 1    
   112   56  124 1    
   113   57   58 2    
   114   57   59 am   BACKBONE|DICT|INTERRES
   115   59   60 1    
   116   59  125 1    
   117   60   61 1    
   118   60   62 1    
   119   60  126 1    
   120   61  127 1    
   121   61  128 1    
   122   61  129 1    
   123   62   63 2    
   124   62   64 am   BACKBONE|DICT|INTERRES
   125   64   65 1    
   126   64  130 1    
   127   65   66 1    
   128   65   69 1    
   129   65  131 1    
   130   66   67 am   BACKBONE|DICT|INTERRES
   131   66   68 2    
   132   67  132 1    
   133   67  133 1    
   134   69   70 1    
   135   69  134 1    
   136   69  135 1    
   137   70   71 1    
   138   71  136 1    
   139   71  137 1    
@<TRIPOS>SUBSTRUCTURE
     1 UNK         1 GROUP             0       ****    0 ROOT    
