@<TRIPOS>MOLECULE
3R136
137   139    1
SMALL
USER_CHARGES


@<TRIPOS>ATOM
      1 CA         28.3126   19.4860   -1.8828 C.3       0 UNK        -0.1979 
      2 C          29.4735   20.0118   -1.0510 C.2       0 UNK         0.4864 
      3 O          30.5661   19.4438   -1.1001 O.2       0 UNK        -0.5359 
      4 N          29.2417   21.0852   -0.2841 N.am      1 UNK        -0.4318 
      5 CA         30.2547   21.7726    0.5236 C.3       1 UNK         0.0824 
      6 C6         29.6054   22.4914    1.7377 C.3       12 UNK        -0.0944 
      7 S7         30.7453   22.5904    3.1581 S.3       12 UNK        -0.2672 
      8 C8         29.6556   22.2152    4.5685 C.3       12 UNK         0.0333 
      9 C9         28.7108   23.3701    4.8663 C.ar      12 UNK        -0.0807 
     10 C10        29.2011   24.5371    5.4598 C.ar      12 UNK        -0.0894 
     11 C11        28.3575   25.6315    5.6930 C.ar      12 UNK        -0.0804 
     12 C12        26.9954   25.5066    5.4032 C.ar      12 UNK        -0.0824 
     13 C13        26.4913   24.3464    4.8069 C.ar      12 UNK        -0.0762 
     14 C14        27.3554   23.2814    4.5377 C.ar      12 UNK        -0.0782 
     15 C15        25.0187   24.2496    4.4326 C.3       12 UNK         0.0230 
     16 S16        24.7171   24.8138    2.7242 S.3       12 UNK        -0.2608 
     17 C17        24.8496   26.6269    2.8995 C.3       12 UNK        -0.0989 
     18 CA         26.2506   27.1588    2.4912 C.3       5 UNK         0.0716 
     19 N          26.5939   26.9026    1.0888 N.am      5 UNK        -0.4135 
     20 C          26.0348   27.3966   -0.0214 C.2       4 UNK         0.5031 
     21 O          25.0711   28.1637   -0.0215 O.2       4 UNK        -0.5229 
     22 CA         26.7238   27.0050   -1.3489 C.3       4 UNK         0.0329 
     23 CB         26.0937   27.7024   -2.5693 C.3       4 UNK        -0.2001 
     24 N          28.1707   27.2751   -1.3415 N.am      4 UNK        -0.4303 
     25 C          29.0890   26.5667   -0.6704 C.2       3 UNK         0.5044 
     26 O          28.8102   25.5956    0.0395 O.2       3 UNK        -0.5152 
     27 CA         30.5411   27.0500   -0.7464 C.3       3 UNK         0.0319 
     28 CB         30.7608   28.2698    0.1666 C.3       3 UNK        -0.2001 
     29 N          31.3850   25.9471   -0.3006 N.am      3 UNK        -0.4354 
     30 C          32.5244   25.5452   -0.8710 C.2       2 UNK         0.4964 
     31 O          33.0992   26.1651   -1.7666 O.2       2 UNK        -0.5047 
     32 CA         33.1237   24.2133   -0.3753 C.3       2 UNK         0.0288 
     33 CB         34.2811   24.4814    0.6006 C.3       2 UNK        -0.2113 
     34 N          32.1609   23.3014    0.2602 N.am      2 UNK        -0.4145 
     35 C          31.1120   22.7249   -0.3464 C.2       1 UNK         0.5006 
     36 O          30.8191   22.9272   -1.5286 O.2       1 UNK        -0.5103 
     37 C          26.4905   28.6167    2.9506 C.2       5 UNK         0.5055 
     38 O          26.1138   28.9668    4.0707 O.2       5 UNK        -0.5220 
     39 N          27.1388   29.4365    2.1136 N.am      6 UNK        -0.4450 
     40 CA         27.5145   30.8131    2.4115 C.3       6 UNK         0.0367 
     41 CB         27.6483   31.5943    1.0921 C.3       6 UNK        -0.1929 
     42 C          28.8242   30.8233    3.2077 C.2       6 UNK         0.5070 
     43 O          29.8969   30.7136    2.6131 O.2       6 UNK        -0.5237 
     44 N          28.7256   30.9622    4.5361 N.am      7 UNK        -0.4739 
     45 CA         29.8743   31.0320    5.4489 C.3       7 UNK         0.0276 
     46 CB         29.3809   31.0797    6.9025 C.3       7 UNK        -0.1927 
     47 C          30.8245   32.2044    5.1498 C.2       7 UNK         0.5013 
     48 O          32.0399   32.0460    5.2667 O.2       7 UNK        -0.5193 
     49 N          30.2577   33.3291    4.6896 N.am      8 UNK        -0.4253 
     50 CA         30.9798   34.5128    4.2137 C.3       8 UNK         0.0242 
     51 CB         29.9712   35.6439    3.9549 C.3       8 UNK        -0.2000 
     52 C          31.8412   34.2653    2.9589 C.2       8 UNK         0.4948 
     53 O          32.7768   35.0299    2.7221 O.2       8 UNK        -0.5275 
     54 N          31.5363   33.2064    2.1939 N.am      9 UNK        -0.4246 
     55 CA         32.3103   32.7570    1.0347 C.3       9 UNK         0.0261 
     56 CB         31.3390   32.2896   -0.0640 C.3       9 UNK        -0.1959 
     57 C          33.3227   31.6521    1.4008 C.2       9 UNK         0.5033 
     58 O          33.8937   31.0530    0.4888 O.2       9 UNK        -0.5390 
     59 N          33.5357   31.4106    2.7059 N.am      10 UNK        -0.4215 
     60 CA         34.4199   30.4070    3.3055 C.3       10 UNK         0.0240 
     61 CB         35.8968   30.6498    2.9236 C.3       10 UNK        -0.1982 
     62 C          33.9405   28.9771    3.0056 C.2       10 UNK         0.4970 
     63 O          34.5781   28.2533    2.2378 O.2       10 UNK        -0.4916 
     64 N          32.8138   28.6054    3.6269 N.am      11 UNK        -0.4279 
     65 CA         32.2587   27.2445    3.6086 C.3       11 UNK         0.1003 
     66 C          33.1811   26.1822    4.2862 C.2       11 UNK         0.5709 
     67 N          32.8749   24.9023    4.1332 N.am      11 UNK        -0.7358 
     68 O          34.1539   26.4989    4.9698 O.2       11 UNK        -0.4999 
     69 C69        30.7944   27.2299    4.1364 C.3       12 UNK        -0.0954 
     70 S70        30.6416   27.3199    5.9596 S.3       12 UNK        -0.2268 
     71 C71        28.8685   26.9690    6.2356 C.3       12 UNK         0.0203 
     72 H72        28.0971   18.4518   -1.6156 H         1 UNK         0.0888 
     73 H73        27.4052   20.0708   -1.7326 H         1 UNK         0.0888 
     74 H74        28.5656   19.5194   -2.9422 H         1 UNK         0.0888 
     75 H75        28.3366   21.5316   -0.3204 H         1 UNK         0.3017 
     76 H76        30.9310   21.0044    0.9064 H         1 UNK         0.0873 
     77 H77        29.2501   23.4908    1.4846 H         1 UNK         0.0745 
     78 H78        28.7210   21.9412    2.0627 H         1 UNK         0.0745 
     79 H79        29.1055   21.2929    4.3758 H         1 UNK         0.0705 
     80 H80        30.2733   22.0231    5.4469 H         1 UNK         0.0705 
     81 H81        30.2531   24.5983    5.7007 H         1 UNK         0.1334 
     82 H82        26.3312   26.3377    5.5986 H         1 UNK         0.1417 
     83 H83        26.9720   22.3865    4.0665 H         1 UNK         0.1562 
     84 H84        24.4053   24.8225    5.1298 H         1 UNK         0.0748 
     85 H85        24.6852   23.2145    4.5215 H         1 UNK         0.0748 
     86 H86        24.6066   26.8914    3.9298 H         1 UNK         0.0940 
     87 H87        24.0742   27.0923    2.2891 H         1 UNK         0.0940 
     88 H88        26.9987   26.5889    3.0379 H         1 UNK         0.0703 
     89 H89        27.3883   26.2815    0.9440 H         1 UNK         0.3081 
     90 H90        26.5776   25.9296   -1.4726 H         1 UNK         0.0719 
     91 H91        26.1989   28.7867   -2.5140 H         1 UNK         0.0809 
     92 H92        26.5522   27.3667   -3.4996 H         1 UNK         0.0809 
     93 H93        25.0277   27.4813   -2.6395 H         1 UNK         0.0809 
     94 H94        28.4768   28.0742   -1.8785 H         1 UNK         0.2990 
     95 H95        30.7691   27.3111   -1.7820 H         1 UNK         0.0690 
     96 H96        31.8075   28.5762    0.1795 H         1 UNK         0.0788 
     97 H97        30.4607   28.0687    1.1952 H         1 UNK         0.0788 
     98 H98        30.1784   29.1247   -0.1764 H         1 UNK         0.0788 
     99 H99        30.9310   25.3284    0.3588 H         1 UNK         0.2993 
    100 H100       33.5269   23.7010   -1.2516 H         1 UNK         0.0949 
    101 H101       34.7649   23.5555    0.9123 H         1 UNK         0.0767 
    102 H102       35.0465   25.1046    0.1356 H         1 UNK         0.0767 
    103 H103       33.9416   25.0036    1.4950 H         1 UNK         0.0767 
    104 H104       32.3174   23.0873    1.2360 H         1 UNK         0.3013 
    105 H105       27.4407   29.0688    1.2248 H         1 UNK         0.3121 
    106 H106       26.7312   31.2887    3.0061 H         1 UNK         0.0774 
    107 H107       27.9769   32.6183    1.2751 H         1 UNK         0.0815 
    108 H108       28.3712   31.1358    0.4169 H         1 UNK         0.0815 
    109 H109       26.6937   31.6491    0.5685 H         1 UNK         0.0815 
    110 H110       27.8050   30.9973    4.9527 H         1 UNK         0.2987 
    111 H111       30.4528   30.1181    5.3150 H         1 UNK         0.0949 
    112 H112       28.7639   31.9585    7.0934 H         1 UNK         0.0806 
    113 H113       28.7940   30.1948    7.1501 H         1 UNK         0.0806 
    114 H114       30.2209   31.1123    7.5980 H         1 UNK         0.0806 
    115 H115       29.2504   33.3548    4.6236 H         1 UNK         0.3010 
    116 H116       31.6556   34.8300    5.0109 H         1 UNK         0.0829 
    117 H117       29.4131   35.8940    4.8575 H         1 UNK         0.0813 
    118 H118       30.4790   36.5531    3.6294 H         1 UNK         0.0813 
    119 H119       29.2540   35.3761    3.1778 H         1 UNK         0.0813 
    120 H120       30.7831   32.5883    2.4769 H         1 UNK         0.3038 
    121 H121       32.8865   33.5923    0.6317 H         1 UNK         0.0769 
    122 H122       30.7945   31.3964    0.2378 H         1 UNK         0.0811 
    123 H123       31.8736   32.0474   -0.9833 H         1 UNK         0.0811 
    124 H124       30.6103   33.0626   -0.3080 H         1 UNK         0.0811 
    125 H125       32.9852   31.9364    3.3758 H         1 UNK         0.3204 
    126 H126       34.3451   30.5425    4.3858 H         1 UNK         0.0748 
    127 H127       36.5508   29.9549    3.4517 H         1 UNK         0.0771 
    128 H128       36.0759   30.5113    1.8570 H         1 UNK         0.0771 
    129 H129       36.2133   31.6587    3.1881 H         1 UNK         0.0771 
    130 H130       32.3596   29.2591    4.2455 H         1 UNK         0.2980 
    131 H131       32.2181   26.9607    2.5553 H         1 UNK         0.0545 
    132 H132       33.4592   24.2133    4.5785 H         1 UNK         0.3459 
    133 H133       32.0513   24.6058    3.6335 H         1 UNK         0.3459 
    134 H134       30.3009   26.3261    3.7803 H         1 UNK         0.0616 
    135 H135       30.2263   28.0537    3.7021 H         1 UNK         0.0616 
    136 H136       28.2983   27.7865    5.7906 H         1 UNK         0.0634 
    137 H137       28.6746   27.0043    7.3081 H         1 UNK         0.0634 
@<TRIPOS>BOND
     1    1    2 1    
     2    1   72 1    
     3    1   73 1    
     4    1   74 1    
     5    2    3 2    
     6    2    4 am   BACKBONE|DICT|INTERRES
     7    4    5 1    
     8    4   75 1    
     9    5    6 1    
    10    5   35 1    
    11    5   76 1    
    12    6    7 1    
    13    6   77 1    
    14    6   78 1    
    15    7    8 1    
    16    8    9 1    
    17    8   79 1    
    18    8   80 1    
    19    9   10 ar   
    20    9   14 ar   
    21   10   11 ar   
    22   10   81 1    
    23   11   12 ar   
    24   11   71 1    
    25   12   13 ar   
    26   12   82 1    
    27   13   14 ar   
    28   13   15 1    
    29   14   83 1    
    30   15   16 1    
    31   15   84 1    
    32   15   85 1    
    33   16   17 1    
    34   17   18 1    
    35   17   86 1    
    36   17   87 1    
    37   18   19 1    
    38   18   37 1    
    39   18   88 1    
    40   19   20 am   BACKBONE|DICT|INTERRES
    41   19   89 1    
    42   20   21 2    
    43   20   22 1    
    44   22   23 1    
    45   22   24 1    
    46   22   90 1    
    47   23   91 1    
    48   23   92 1    
    49   23   93 1    
    50   24   25 am   BACKBONE|DICT|INTERRES
    51   24   94 1    
    52   25   26 2    
    53   25   27 1    
    54   27   28 1    
    55   27   29 1    
    56   27   95 1    
    57   28   96 1    
    58   28   97 1    
    59   28   98 1    
    60   29   30 am   BACKBONE|DICT|INTERRES
    61   29   99 1    
    62   30   31 2    
    63   30   32 1    
    64   32   33 1    
    65   32   34 1    
    66   32  100 1    
    67   33  101 1    
    68   33  102 1    
    69   33  103 1    
    70   34   35 am   BACKBONE|DICT|INTERRES
    71   34  104 1    
    72   35   36 2    
    73   37   38 2    
    74   37   39 am   BACKBONE|DICT|INTERRES
    75   39   40 1    
    76   39  105 1    
    77   40   41 1    
    78   40   42 1    
    79   40  106 1    
    80   41  107 1    
    81   41  108 1    
    82   41  109 1    
    83   42   43 2    
    84   42   44 am   BACKBONE|DICT|INTERRES
    85   44   45 1    
    86   44  110 1    
    87   45   46 1    
    88   45   47 1    
    89   45  111 1    
    90   46  112 1    
    91   46  113 1    
    92   46  114 1    
    93   47   48 2    
    94   47   49 am   BACKBONE|DICT|INTERRES
    95   49   50 1    
    96   49  115 1    
    97   50   51 1    
    98   50   52 1    
    99   50  116 1    
   100   51  117 1    
   101   51  118 1    
   102   51  119 1    
   103   52   53 2    
   104   52   54 am   BACKBONE|DICT|INTERRES
   105   54   55 1    
   106   54  120 1    
   107   55   56 1    
   108   55   57 1    
   109   55  121 1    
   110   56  122 1    
   111   56  123 1    
   112   56  124 1    
   113   57   58 2    
   114   57   59 am   BACKBONE|DICT|INTERRES
   115   59   60 1    
   116   59  125 1    
   117   60   61 1    
   118   60   62 1    
   119   60  126 1    
   120   61  127 1    
   121   61  128 1    
   122   61  129 1    
   123   62   63 2    
   124   62   64 am   BACKBONE|DICT|INTERRES
   125   64   65 1    
   126   64  130 1    
   127   65   66 1    
   128   65   69 1    
   129   65  131 1    
   130   66   67 am   BACKBONE|DICT|INTERRES
   131   66   68 2    
   132   67  132 1    
   133   67  133 1    
   134   69   70 1    
   135   69  134 1    
   136   69  135 1    
   137   70   71 1    
   138   71  136 1    
   139   71  137 1    
@<TRIPOS>SUBSTRUCTURE
     1 UNK         1 GROUP             0       ****    0 ROOT    
