@<TRIPOS>MOLECULE
3R136
137   139    1
SMALL
USER_CHARGES


@<TRIPOS>ATOM
      1 CA         32.7162   20.7484   -1.0662 C.3       0 UNK        -0.1979 
      2 C          32.1272   21.9524   -1.7864 C.2       0 UNK         0.4864 
      3 O          32.8565   22.6776   -2.4644 O.2       0 UNK        -0.5359 
      4 N          30.8163   22.1686   -1.6443 N.am      1 UNK        -0.4318 
      5 CA         30.0583   23.2549   -2.2605 C.3       1 UNK         0.0824 
      6 C6         30.2790   24.6227   -1.5521 C.3       12 UNK        -0.0944 
      7 S7         29.6215   24.7357    0.1497 S.3       12 UNK        -0.2672 
      8 C8         31.0842   24.2879    1.1392 C.3       12 UNK         0.0333 
      9 C9         30.8398   24.4028    2.6403 C.ar      12 UNK        -0.0807 
     10 C10        31.7778   25.0485    3.4515 C.ar      12 UNK        -0.0894 
     11 C11        31.5863   25.1386    4.8339 C.ar      12 UNK        -0.0804 
     12 C12        30.4374   24.5849    5.4063 C.ar      12 UNK        -0.0824 
     13 C13        29.4850   23.9472    4.6065 C.ar      12 UNK        -0.0762 
     14 C14        29.7013   23.8419    3.2291 C.ar      12 UNK        -0.0782 
     15 C15        28.2161   23.3811    5.2253 C.3       12 UNK         0.0230 
     16 S16        26.7315   24.2573    4.6381 S.3       12 UNK        -0.2608 
     17 C17        26.9697   25.9359    5.3244 C.3       12 UNK        -0.0989 
     18 CA         27.6401   26.9286    4.3364 C.3       5 UNK         0.0716 
     19 N          27.0001   26.9210    3.0222 N.am      5 UNK        -0.4135 
     20 C          27.5205   27.4560    1.9132 C.2       4 UNK         0.5031 
     21 O          28.6136   28.0187    1.8785 O.2       4 UNK        -0.5229 
     22 CA         26.6890   27.3020    0.6261 C.3       4 UNK         0.0329 
     23 CB         27.3814   27.9149   -0.6062 C.3       4 UNK        -0.2001 
     24 N          26.4021   25.8928    0.3534 N.am      4 UNK        -0.4303 
     25 C          25.4130   25.1770    0.9037 C.2       3 UNK         0.5044 
     26 O          24.6149   25.6497    1.7155 O.2       3 UNK        -0.5152 
     27 CA         25.3222   23.6861    0.5133 C.3       3 UNK         0.0319 
     28 CB         23.8883   23.1293    0.6375 C.3       3 UNK        -0.2001 
     29 N          25.8875   23.3724   -0.8073 N.am      3 UNK        -0.4354 
     30 C          25.5113   23.8542   -2.0018 C.2       2 UNK         0.4964 
     31 O          24.5953   24.6636   -2.1562 O.2       2 UNK        -0.5047 
     32 CA         26.3180   23.3611   -3.2234 C.3       2 UNK         0.0288 
     33 CB         25.8577   24.0135   -4.5414 C.3       2 UNK        -0.2113 
     34 N          27.7614   23.5801   -3.0690 N.am      2 UNK        -0.4145 
     35 C          28.5803   22.8286   -2.3210 C.2       1 UNK         0.5006 
     36 O          28.1957   21.8507   -1.6695 O.2       1 UNK        -0.5103 
     37 C          27.6337   28.3575    4.9127 C.2       5 UNK         0.5055 
     38 O          26.5776   28.9961    4.9121 O.2       5 UNK        -0.5220 
     39 N          28.7906   28.8122    5.4136 N.am      6 UNK        -0.4450 
     40 CA         29.0389   30.1393    5.9895 C.3       6 UNK         0.0367 
     41 CB         28.2441   30.3392    7.2978 C.3       6 UNK        -0.1929 
     42 C          28.8340   31.2748    4.9664 C.2       6 UNK         0.5070 
     43 O          28.0995   32.2277    5.2357 O.2       6 UNK        -0.5237 
     44 N          29.4816   31.1433    3.8035 N.am      7 UNK        -0.4739 
     45 CA         29.4001   32.0724    2.6797 C.3       7 UNK         0.0276 
     46 CB         28.5919   31.4220    1.5421 C.3       7 UNK        -0.1927 
     47 C          30.8175   32.4553    2.2353 C.2       7 UNK         0.5013 
     48 O          31.3868   31.7984    1.3601 O.2       7 UNK        -0.5193 
     49 N          31.3607   33.5168    2.8503 N.am      8 UNK        -0.4253 
     50 CA         32.6530   34.1485    2.5490 C.3       8 UNK         0.0242 
     51 CB         32.5749   34.9153    1.2085 C.3       8 UNK        -0.2000 
     52 C          33.8202   33.1467    2.6265 C.2       8 UNK         0.4948 
     53 O          34.1806   32.7370    3.7300 O.2       8 UNK        -0.5275 
     54 N          34.3671   32.7445    1.4703 N.am      9 UNK        -0.4246 
     55 CA         35.4191   31.7316    1.3447 C.3       9 UNK         0.0261 
     56 CB         35.8718   31.6454   -0.1216 C.3       9 UNK        -0.1959 
     57 C          35.0047   30.3422    1.8644 C.2       9 UNK         0.5033 
     58 O          35.8610   29.6077    2.3599 O.2       9 UNK        -0.5390 
     59 N          33.7073   30.0152    1.7868 N.am      10 UNK        -0.4215 
     60 CA         33.1213   28.8137    2.3744 C.3       10 UNK         0.0240 
     61 CB         31.9265   28.3618    1.5136 C.3       10 UNK        -0.1982 
     62 C          32.7331   29.1002    3.8342 C.2       10 UNK         0.4970 
     63 O          31.5446   29.1961    4.1359 O.2       10 UNK        -0.4916 
     64 N          33.7532   29.2506    4.6927 N.am      11 UNK        -0.4279 
     65 CA         33.6899   29.4648    6.1534 C.3       11 UNK         0.1003 
     66 C          32.8087   30.6509    6.6540 C.2       11 UNK         0.5709 
     67 N          32.6524   31.7237    5.8911 N.am      11 UNK        -0.7358 
     68 O          32.2823   30.6247    7.7641 O.2       11 UNK        -0.4999 
     69 C69        33.5151   28.1449    6.9676 C.3       12 UNK        -0.0954 
     70 S70        31.9752   27.2160    6.6455 S.3       12 UNK        -0.2268 
     71 C71        32.6401   25.8060    5.7053 C.3       12 UNK         0.0203 
     72 H72        33.1650   20.0633   -1.7849 H         1 UNK         0.0888 
     73 H73        33.4910   21.0700   -0.3708 H         1 UNK         0.0888 
     74 H74        31.9606   20.2018   -0.5021 H         1 UNK         0.0888 
     75 H75        30.2333   21.5237   -1.1236 H         1 UNK         0.3017 
     76 H76        30.3954   23.3457   -3.2955 H         1 UNK         0.0873 
     77 H77        31.3411   24.8713   -1.5423 H         1 UNK         0.0745 
     78 H78        29.8109   25.4182   -2.1339 H         1 UNK         0.0745 
     79 H79        31.3757   23.2626    0.9122 H         1 UNK         0.0705 
     80 H80        31.9163   24.9264    0.8383 H         1 UNK         0.0705 
     81 H81        32.6676   25.4715    3.0059 H         1 UNK         0.1334 
     82 H82        30.2849   24.6595    6.4745 H         1 UNK         0.1417 
     83 H83        28.9683   23.3406    2.6119 H         1 UNK         0.1562 
     84 H84        28.2539   23.4239    6.3150 H         1 UNK         0.0748 
     85 H85        28.1310   22.3259    4.9621 H         1 UNK         0.0748 
     86 H86        27.5505   25.8688    6.2463 H         1 UNK         0.0940 
     87 H87        25.9840   26.3020    5.6193 H         1 UNK         0.0940 
     88 H88        28.6777   26.6208    4.1908 H         1 UNK         0.0703 
     89 H89        26.0946   26.4711    2.9595 H         1 UNK         0.3081 
     90 H90        25.7491   27.8365    0.7796 H         1 UNK         0.0719 
     91 H91        28.3438   27.4418   -0.8056 H         1 UNK         0.0809 
     92 H92        26.7649   27.8142   -1.4996 H         1 UNK         0.0809 
     93 H93        27.5674   28.9795   -0.4586 H         1 UNK         0.0809 
     94 H94        27.0592   25.4123   -0.2442 H         1 UNK         0.2990 
     95 H95        25.9430   23.1560    1.2373 H         1 UNK         0.0690 
     96 H96        23.8502   22.0702    0.3830 H         1 UNK         0.0788 
     97 H97        23.1921   23.6574   -0.0150 H         1 UNK         0.0788 
     98 H98        23.5159   23.2282    1.6580 H         1 UNK         0.0788 
     99 H99        26.6679   22.7206   -0.8099 H         1 UNK         0.2993 
    100 H100       26.1352   22.2873   -3.3073 H         1 UNK         0.0949 
    101 H101       24.7975   23.8288   -4.7206 H         1 UNK         0.0767 
    102 H102       26.0039   25.0944   -4.5302 H         1 UNK         0.0767 
    103 H103       26.4017   23.6094   -5.3955 H         1 UNK         0.0767 
    104 H104       28.1427   24.3820   -3.5505 H         1 UNK         0.3013 
    105 H105       29.6221   28.2451    5.2971 H         1 UNK         0.3121 
    106 H106       30.0938   30.1537    6.2521 H         1 UNK         0.0774 
    107 H107       27.1688   30.3767    7.1221 H         1 UNK         0.0815 
    108 H108       28.5261   31.2751    7.7816 H         1 UNK         0.0815 
    109 H109       28.4425   29.5364    8.0077 H         1 UNK         0.0815 
    110 H110       30.1232   30.3585    3.6979 H         1 UNK         0.2987 
    111 H111       28.8827   32.9887    2.9724 H         1 UNK         0.0949 
    112 H112       28.4921   32.1029    0.6962 H         1 UNK         0.0806 
    113 H113       29.0703   30.5143    1.1738 H         1 UNK         0.0806 
    114 H114       27.5869   31.1569    1.8708 H         1 UNK         0.0806 
    115 H115       30.8335   33.9479    3.5971 H         1 UNK         0.3010 
    116 H116       32.8333   34.8821    3.3364 H         1 UNK         0.0829 
    117 H117       32.3184   34.2663    0.3704 H         1 UNK         0.0813 
    118 H118       31.8189   35.6993    1.2544 H         1 UNK         0.0813 
    119 H119       33.5227   35.4034    0.9762 H         1 UNK         0.0813 
    120 H120       33.9848   33.1135    0.6116 H         1 UNK         0.3038 
    121 H121       36.2677   32.0635    1.9466 H         1 UNK         0.0769 
    122 H122       36.6737   30.9149   -0.2394 H         1 UNK         0.0811 
    123 H123       35.0561   31.3423   -0.7793 H         1 UNK         0.0811 
    124 H124       36.2539   32.6025   -0.4771 H         1 UNK         0.0811 
    125 H125       33.0446   30.7060    1.4422 H         1 UNK         0.3204 
    126 H126       33.8505   28.0007    2.3760 H         1 UNK         0.0748 
    127 H127       31.4406   27.4845    1.9416 H         1 UNK         0.0771 
    128 H128       32.2397   28.0986    0.5035 H         1 UNK         0.0771 
    129 H129       31.1645   29.1373    1.4353 H         1 UNK         0.0771 
    130 H130       34.6866   29.2198    4.3034 H         1 UNK         0.2980 
    131 H131       34.6946   29.8105    6.3980 H         1 UNK         0.0545 
    132 H132       32.1027   32.4889    6.2435 H         1 UNK         0.3459 
    133 H133       33.1684   31.8352    5.0229 H         1 UNK         0.3459 
    134 H134       34.3696   27.4943    6.7775 H         1 UNK         0.0616 
    135 H135       33.5610   28.3500    8.0383 H         1 UNK         0.0616 
    136 H136       33.4704   26.1490    5.0861 H         1 UNK         0.0634 
    137 H137       33.0531   25.0746    6.4012 H         1 UNK         0.0634 
@<TRIPOS>BOND
     1    1    2 1    
     2    1   72 1    
     3    1   73 1    
     4    1   74 1    
     5    2    3 2    
     6    2    4 am   BACKBONE|DICT|INTERRES
     7    4    5 1    
     8    4   75 1    
     9    5    6 1    
    10    5   35 1    
    11    5   76 1    
    12    6    7 1    
    13    6   77 1    
    14    6   78 1    
    15    7    8 1    
    16    8    9 1    
    17    8   79 1    
    18    8   80 1    
    19    9   10 ar   
    20    9   14 ar   
    21   10   11 ar   
    22   10   81 1    
    23   11   12 ar   
    24   11   71 1    
    25   12   13 ar   
    26   12   82 1    
    27   13   14 ar   
    28   13   15 1    
    29   14   83 1    
    30   15   16 1    
    31   15   84 1    
    32   15   85 1    
    33   16   17 1    
    34   17   18 1    
    35   17   86 1    
    36   17   87 1    
    37   18   19 1    
    38   18   37 1    
    39   18   88 1    
    40   19   20 am   BACKBONE|DICT|INTERRES
    41   19   89 1    
    42   20   21 2    
    43   20   22 1    
    44   22   23 1    
    45   22   24 1    
    46   22   90 1    
    47   23   91 1    
    48   23   92 1    
    49   23   93 1    
    50   24   25 am   BACKBONE|DICT|INTERRES
    51   24   94 1    
    52   25   26 2    
    53   25   27 1    
    54   27   28 1    
    55   27   29 1    
    56   27   95 1    
    57   28   96 1    
    58   28   97 1    
    59   28   98 1    
    60   29   30 am   BACKBONE|DICT|INTERRES
    61   29   99 1    
    62   30   31 2    
    63   30   32 1    
    64   32   33 1    
    65   32   34 1    
    66   32  100 1    
    67   33  101 1    
    68   33  102 1    
    69   33  103 1    
    70   34   35 am   BACKBONE|DICT|INTERRES
    71   34  104 1    
    72   35   36 2    
    73   37   38 2    
    74   37   39 am   BACKBONE|DICT|INTERRES
    75   39   40 1    
    76   39  105 1    
    77   40   41 1    
    78   40   42 1    
    79   40  106 1    
    80   41  107 1    
    81   41  108 1    
    82   41  109 1    
    83   42   43 2    
    84   42   44 am   BACKBONE|DICT|INTERRES
    85   44   45 1    
    86   44  110 1    
    87   45   46 1    
    88   45   47 1    
    89   45  111 1    
    90   46  112 1    
    91   46  113 1    
    92   46  114 1    
    93   47   48 2    
    94   47   49 am   BACKBONE|DICT|INTERRES
    95   49   50 1    
    96   49  115 1    
    97   50   51 1    
    98   50   52 1    
    99   50  116 1    
   100   51  117 1    
   101   51  118 1    
   102   51  119 1    
   103   52   53 2    
   104   52   54 am   BACKBONE|DICT|INTERRES
   105   54   55 1    
   106   54  120 1    
   107   55   56 1    
   108   55   57 1    
   109   55  121 1    
   110   56  122 1    
   111   56  123 1    
   112   56  124 1    
   113   57   58 2    
   114   57   59 am   BACKBONE|DICT|INTERRES
   115   59   60 1    
   116   59  125 1    
   117   60   61 1    
   118   60   62 1    
   119   60  126 1    
   120   61  127 1    
   121   61  128 1    
   122   61  129 1    
   123   62   63 2    
   124   62   64 am   BACKBONE|DICT|INTERRES
   125   64   65 1    
   126   64  130 1    
   127   65   66 1    
   128   65   69 1    
   129   65  131 1    
   130   66   67 am   BACKBONE|DICT|INTERRES
   131   66   68 2    
   132   67  132 1    
   133   67  133 1    
   134   69   70 1    
   135   69  134 1    
   136   69  135 1    
   137   70   71 1    
   138   71  136 1    
   139   71  137 1    
@<TRIPOS>SUBSTRUCTURE
     1 UNK         1 GROUP             0       ****    0 ROOT    
