@<TRIPOS>MOLECULE
3R136
137   139    1
SMALL
USER_CHARGES


@<TRIPOS>ATOM
      1 CA         26.7735   22.1652    6.0057 C.3       0 UNK        -0.1979 
      2 C          26.8227   22.4485    4.5119 C.2       0 UNK         0.4864 
      3 O          25.8158   22.8571    3.9320 O.2       0 UNK        -0.5359 
      4 N          27.9896   22.2469    3.8838 N.am      1 UNK        -0.4318 
      5 CA         28.2214   22.4551    2.4479 C.3       1 UNK         0.0824 
      6 C6         29.4854   21.7101    1.9440 C.3       12 UNK        -0.0944 
      7 S7         31.0239   22.1017    2.8557 S.3       12 UNK        -0.2672 
      8 C8         32.2161   22.4100    1.5089 C.3       12 UNK         0.0333 
      9 C9         32.4298   23.8986    1.2735 C.ar      12 UNK        -0.0807 
     10 C10        33.5869   24.5278    1.7449 C.ar      12 UNK        -0.0894 
     11 C11        33.7874   25.8963    1.5365 C.ar      12 UNK        -0.0804 
     12 C12        32.8067   26.6413    0.8754 C.ar      12 UNK        -0.0824 
     13 C13        31.6412   26.0256    0.4101 C.ar      12 UNK        -0.0762 
     14 C14        31.4718   24.6496    0.5877 C.ar      12 UNK        -0.0782 
     15 C15        30.5266   26.8612   -0.1959 C.3       12 UNK         0.0230 
     16 S16        30.9877   27.6800   -1.7536 S.3       12 UNK        -0.2608 
     17 C17        29.8152   29.0840   -1.7084 C.3       12 UNK        -0.0989 
     18 CA         28.4707   28.8377   -2.4481 C.3       5 UNK         0.0716 
     19 N          27.8570   27.5629   -2.0651 N.am      5 UNK        -0.4135 
     20 C          27.3547   26.6563   -2.9135 C.2       4 UNK         0.5031 
     21 O          27.3827   26.7720   -4.1391 O.2       4 UNK        -0.5229 
     22 CA         26.6798   25.4166   -2.2958 C.3       4 UNK         0.0329 
     23 CB         27.6295   24.2093   -2.3557 C.3       4 UNK        -0.2001 
     24 N          26.2266   25.6191   -0.9139 N.am      4 UNK        -0.4303 
     25 C          25.2526   26.4710   -0.5527 C.2       3 UNK         0.5044 
     26 O          24.6206   27.1506   -1.3616 O.2       3 UNK        -0.5152 
     27 CA         24.9554   26.6427    0.9498 C.3       3 UNK         0.0319 
     28 CB         23.7367   25.7984    1.3529 C.3       3 UNK        -0.2001 
     29 N          26.0766   26.3156    1.8341 N.am      3 UNK        -0.4354 
     30 C          27.2783   26.9102    1.8223 C.2       2 UNK         0.4964 
     31 O          27.5802   27.8338    1.0650 O.2       2 UNK        -0.5047 
     32 CA         28.3427   26.3307    2.7739 C.3       2 UNK         0.0288 
     33 CB         28.2681   27.0266    4.1409 C.3       2 UNK        -0.2113 
     34 N          28.2845   24.8761    2.9714 N.am      2 UNK        -0.4145 
     35 C          28.2126   23.9366    2.0137 C.2       1 UNK         0.5006 
     36 O          28.1224   24.1966    0.8136 O.2       1 UNK        -0.5103 
     37 C          27.4905   30.0044   -2.1808 C.2       5 UNK         0.5055 
     38 O          27.9281   31.1547   -2.1431 O.2       5 UNK        -0.5220 
     39 N          26.2063   29.6978   -1.9273 N.am      6 UNK        -0.4450 
     40 CA         25.1464   30.5435   -1.3603 C.3       6 UNK         0.0367 
     41 CB         24.9416   31.8638   -2.1297 C.3       6 UNK        -0.1929 
     42 C          25.3350   30.7743    0.1495 C.2       6 UNK         0.5070 
     43 O          24.3915   30.5600    0.9108 O.2       6 UNK        -0.5237 
     44 N          26.5463   31.1585    0.5630 N.am      7 UNK        -0.4739 
     45 CA         26.9864   31.2518    1.9509 C.3       7 UNK         0.0276 
     46 CB         26.4881   32.5652    2.5822 C.3       7 UNK        -0.1927 
     47 C          28.5170   31.1698    1.9885 C.2       7 UNK         0.5013 
     48 O          29.1730   31.5632    1.0208 O.2       7 UNK        -0.5193 
     49 N          29.0551   30.6977    3.1159 N.am      8 UNK        -0.4253 
     50 CA         30.4799   30.6004    3.4219 C.3       8 UNK         0.0242 
     51 CB         31.1383   29.4639    2.6155 C.3       8 UNK        -0.2000 
     52 C          30.6255   30.3596    4.9291 C.2       8 UNK         0.4948 
     53 O          29.6500   29.9790    5.5834 O.2       8 UNK        -0.5275 
     54 N          31.8366   30.5715    5.4495 N.am      9 UNK        -0.4246 
     55 CA         32.2184   30.3461    6.8402 C.3       9 UNK         0.0261 
     56 CB         31.6898   31.4863    7.7329 C.3       9 UNK        -0.1959 
     57 C          33.7467   30.2639    6.9097 C.2       9 UNK         0.5033 
     58 O          34.4206   30.7486    5.9962 O.2       9 UNK        -0.5390 
     59 N          34.2609   29.6603    7.9903 N.am      10 UNK        -0.4215 
     60 CA         35.6726   29.5232    8.3937 C.3       10 UNK         0.0240 
     61 CB         36.3061   30.9065    8.6448 C.3       10 UNK        -0.1982 
     62 C          36.5762   28.6726    7.4758 C.2       10 UNK         0.4970 
     63 O          37.5512   28.1064    7.9726 O.2       10 UNK        -0.4916 
     64 N          36.2651   28.6025    6.1780 N.am      11 UNK        -0.4279 
     65 CA         36.9896   27.8403    5.1537 C.3       11 UNK         0.1003 
     66 C          37.0094   26.3005    5.3855 C.2       11 UNK         0.5709 
     67 N          37.9551   25.5990    4.7743 N.am      11 UNK        -0.7358 
     68 O          36.1704   25.7335    6.0840 O.2       11 UNK        -0.4999 
     69 C69        36.5035   28.2302    3.7321 C.3       12 UNK        -0.0954 
     70 S70        34.7804   27.7428    3.3621 S.3       12 UNK        -0.2268 
     71 C71        35.0707   26.5654    2.0054 C.3       12 UNK         0.0203 
     72 H72        26.0286   21.3985    6.2170 H         1 UNK         0.0888 
     73 H73        27.7340   21.8186    6.3869 H         1 UNK         0.0888 
     74 H74        26.4978   23.0678    6.5503 H         1 UNK         0.0888 
     75 H75        28.7915   21.9185    4.4048 H         1 UNK         0.3017 
     76 H76        27.3715   22.0067    1.9281 H         1 UNK         0.0873 
     77 H77        29.6239   21.8835    0.8754 H         1 UNK         0.0745 
     78 H78        29.3236   20.6350    2.0368 H         1 UNK         0.0745 
     79 H79        31.8949   21.9257    0.5859 H         1 UNK         0.0705 
     80 H80        33.1614   21.9355    1.7768 H         1 UNK         0.0705 
     81 H81        34.3358   23.9500    2.2694 H         1 UNK         0.1334 
     82 H82        32.9444   27.7050    0.7357 H         1 UNK         0.1417 
     83 H83        30.5782   24.1648    0.2229 H         1 UNK         0.1562 
     84 H84        30.2459   27.6135    0.5383 H         1 UNK         0.0748 
     85 H85        29.6379   26.2527   -0.3650 H         1 UNK         0.0748 
     86 H86        30.3246   29.9410   -2.1534 H         1 UNK         0.0940 
     87 H87        29.6358   29.3707   -0.6701 H         1 UNK         0.0940 
     88 H88        28.6772   28.8415   -3.5201 H         1 UNK         0.0703 
     89 H89        27.7664   27.4052   -1.0679 H         1 UNK         0.3081 
     90 H90        25.8003   25.1877   -2.9013 H         1 UNK         0.0719 
     91 H91        27.1682   23.3168   -1.9326 H         1 UNK         0.0809 
     92 H92        27.8995   23.9776   -3.3868 H         1 UNK         0.0809 
     93 H93        28.5568   24.3972   -1.8134 H         1 UNK         0.0809 
     94 H94        26.7355   25.1114   -0.1946 H         1 UNK         0.2990 
     95 H95        24.7119   27.6950    1.1107 H         1 UNK         0.0690 
     96 H96        22.8737   26.0343    0.7283 H         1 UNK         0.0788 
     97 H97        23.4467   25.9876    2.3867 H         1 UNK         0.0788 
     98 H98        23.9337   24.7305    1.2486 H         1 UNK         0.0788 
     99 H99        25.9349   25.5493    2.4774 H         1 UNK         0.2993 
    100 H100       29.3185   26.5448    2.3409 H         1 UNK         0.0949 
    101 H101       27.3535   26.7695    4.6768 H         1 UNK         0.0767 
    102 H102       29.1160   26.7584    4.7716 H         1 UNK         0.0767 
    103 H103       28.2840   28.1105    4.0292 H         1 UNK         0.0767 
    104 H104       28.3516   24.5530    3.9251 H         1 UNK         0.3013 
    105 H105       25.9482   28.7188   -1.9791 H         1 UNK         0.3121 
    106 H106       24.2292   29.9630   -1.4739 H         1 UNK         0.0774 
    107 H107       25.7726   32.5560   -1.9938 H         1 UNK         0.0815 
    108 H108       24.0431   32.3742   -1.7812 H         1 UNK         0.0815 
    109 H109       24.8211   31.6866   -3.1982 H         1 UNK         0.0815 
    110 H110       27.2801   31.3028   -0.1259 H         1 UNK         0.2987 
    111 H111       26.5827   30.3998    2.5032 H         1 UNK         0.0949 
    112 H112       26.8581   33.4357    2.0391 H         1 UNK         0.0806 
    113 H113       25.3993   32.6156    2.5931 H         1 UNK         0.0806 
    114 H114       26.8247   32.6566    3.6157 H         1 UNK         0.0806 
    115 H115       28.4637   30.4346    3.8958 H         1 UNK         0.3010 
    116 H116       30.9568   31.5515    3.1756 H         1 UNK         0.0829 
    117 H117       31.0603   29.6378    1.5427 H         1 UNK         0.0813 
    118 H118       32.2008   29.3819    2.8459 H         1 UNK         0.0813 
    119 H119       30.6834   28.4988    2.8373 H         1 UNK         0.0813 
    120 H120       32.6115   30.8494    4.8576 H         1 UNK         0.3038 
    121 H121       31.8025   29.3921    7.1718 H         1 UNK         0.0769 
    122 H122       32.0754   32.4557    7.4147 H         1 UNK         0.0811 
    123 H123       31.9848   31.3431    8.7731 H         1 UNK         0.0811 
    124 H124       30.6011   31.5377    7.7139 H         1 UNK         0.0811 
    125 H125       33.6029   29.2641    8.6482 H         1 UNK         0.3204 
    126 H126       35.6476   29.0006    9.3514 H         1 UNK         0.0748 
    127 H127       37.3163   30.8068    9.0445 H         1 UNK         0.0771 
    128 H128       36.3780   31.4936    7.7286 H         1 UNK         0.0771 
    129 H129       35.7282   31.4824    9.3677 H         1 UNK         0.0771 
    130 H130       35.4788   29.1557    5.8543 H         1 UNK         0.2980 
    131 H131       38.0283   28.1670    5.2328 H         1 UNK         0.0545 
    132 H132       37.9820   24.5997    4.9030 H         1 UNK         0.3459 
    133 H133       38.6475   26.0476    4.1952 H         1 UNK         0.3459 
    134 H134       36.5745   29.3117    3.6058 H         1 UNK         0.0616 
    135 H135       37.1753   27.8112    2.9812 H         1 UNK         0.0616 
    136 H136       35.5279   27.0913    1.1660 H         1 UNK         0.0634 
    137 H137       35.7934   25.8166    2.3338 H         1 UNK         0.0634 
@<TRIPOS>BOND
     1    1    2 1    
     2    1   72 1    
     3    1   73 1    
     4    1   74 1    
     5    2    3 2    
     6    2    4 am   BACKBONE|DICT|INTERRES
     7    4    5 1    
     8    4   75 1    
     9    5    6 1    
    10    5   35 1    
    11    5   76 1    
    12    6    7 1    
    13    6   77 1    
    14    6   78 1    
    15    7    8 1    
    16    8    9 1    
    17    8   79 1    
    18    8   80 1    
    19    9   10 ar   
    20    9   14 ar   
    21   10   11 ar   
    22   10   81 1    
    23   11   12 ar   
    24   11   71 1    
    25   12   13 ar   
    26   12   82 1    
    27   13   14 ar   
    28   13   15 1    
    29   14   83 1    
    30   15   16 1    
    31   15   84 1    
    32   15   85 1    
    33   16   17 1    
    34   17   18 1    
    35   17   86 1    
    36   17   87 1    
    37   18   19 1    
    38   18   37 1    
    39   18   88 1    
    40   19   20 am   BACKBONE|DICT|INTERRES
    41   19   89 1    
    42   20   21 2    
    43   20   22 1    
    44   22   23 1    
    45   22   24 1    
    46   22   90 1    
    47   23   91 1    
    48   23   92 1    
    49   23   93 1    
    50   24   25 am   BACKBONE|DICT|INTERRES
    51   24   94 1    
    52   25   26 2    
    53   25   27 1    
    54   27   28 1    
    55   27   29 1    
    56   27   95 1    
    57   28   96 1    
    58   28   97 1    
    59   28   98 1    
    60   29   30 am   BACKBONE|DICT|INTERRES
    61   29   99 1    
    62   30   31 2    
    63   30   32 1    
    64   32   33 1    
    65   32   34 1    
    66   32  100 1    
    67   33  101 1    
    68   33  102 1    
    69   33  103 1    
    70   34   35 am   BACKBONE|DICT|INTERRES
    71   34  104 1    
    72   35   36 2    
    73   37   38 2    
    74   37   39 am   BACKBONE|DICT|INTERRES
    75   39   40 1    
    76   39  105 1    
    77   40   41 1    
    78   40   42 1    
    79   40  106 1    
    80   41  107 1    
    81   41  108 1    
    82   41  109 1    
    83   42   43 2    
    84   42   44 am   BACKBONE|DICT|INTERRES
    85   44   45 1    
    86   44  110 1    
    87   45   46 1    
    88   45   47 1    
    89   45  111 1    
    90   46  112 1    
    91   46  113 1    
    92   46  114 1    
    93   47   48 2    
    94   47   49 am   BACKBONE|DICT|INTERRES
    95   49   50 1    
    96   49  115 1    
    97   50   51 1    
    98   50   52 1    
    99   50  116 1    
   100   51  117 1    
   101   51  118 1    
   102   51  119 1    
   103   52   53 2    
   104   52   54 am   BACKBONE|DICT|INTERRES
   105   54   55 1    
   106   54  120 1    
   107   55   56 1    
   108   55   57 1    
   109   55  121 1    
   110   56  122 1    
   111   56  123 1    
   112   56  124 1    
   113   57   58 2    
   114   57   59 am   BACKBONE|DICT|INTERRES
   115   59   60 1    
   116   59  125 1    
   117   60   61 1    
   118   60   62 1    
   119   60  126 1    
   120   61  127 1    
   121   61  128 1    
   122   61  129 1    
   123   62   63 2    
   124   62   64 am   BACKBONE|DICT|INTERRES
   125   64   65 1    
   126   64  130 1    
   127   65   66 1    
   128   65   69 1    
   129   65  131 1    
   130   66   67 am   BACKBONE|DICT|INTERRES
   131   66   68 2    
   132   67  132 1    
   133   67  133 1    
   134   69   70 1    
   135   69  134 1    
   136   69  135 1    
   137   70   71 1    
   138   71  136 1    
   139   71  137 1    
@<TRIPOS>SUBSTRUCTURE
     1 UNK         1 GROUP             0       ****    0 ROOT    
