@<TRIPOS>MOLECULE
3R136
137   139    1
SMALL
USER_CHARGES


@<TRIPOS>ATOM
      1 CA         32.6656   28.6293   -0.6453 C.3       0 UNK        -0.1979 
      2 C          31.4548   27.7164   -0.7297 C.2       0 UNK         0.4864 
      3 O          30.5117   28.0275   -1.4594 O.2       0 UNK        -0.5359 
      4 N          31.4833   26.5823   -0.0126 N.am      1 UNK        -0.4318 
      5 CA         30.4200   25.5688    0.0691 C.3       1 UNK         0.0824 
      6 C6         30.5870   24.6777    1.3322 C.3       12 UNK        -0.0944 
      7 S7         29.0705   23.7546    1.7747 S.3       12 UNK        -0.2672 
      8 C8         29.6486   22.7328    3.1675 C.3       12 UNK         0.0333 
      9 C9         29.4332   23.4585    4.4847 C.ar      12 UNK        -0.0807 
     10 C10        30.4596   24.2124    5.0571 C.ar      12 UNK        -0.0894 
     11 C11        30.2295   24.9591    6.2169 C.ar      12 UNK        -0.0804 
     12 C12        28.9638   24.9291    6.8134 C.ar      12 UNK        -0.0824 
     13 C13        27.9368   24.1495    6.2697 C.ar      12 UNK        -0.0762 
     14 C14        28.1881   23.4005    5.1147 C.ar      12 UNK        -0.0782 
     15 C15        26.5616   24.1239    6.9322 C.3       12 UNK         0.0230 
     16 S16        25.1803   24.2703    5.7451 S.3       12 UNK        -0.2608 
     17 C17        25.3683   25.9833    5.1374 C.3       12 UNK        -0.0989 
     18 CA         26.3146   26.1161    3.9087 C.3       5 UNK         0.0716 
     19 N          26.0309   25.1760    2.8209 N.am      5 UNK        -0.4135 
     20 C          24.9242   25.1223    2.0714 C.2       4 UNK         0.5031 
     21 O          23.9722   25.9002    2.1646 O.2       4 UNK        -0.5229 
     22 CA         24.8882   23.9917    1.0282 C.3       4 UNK         0.0329 
     23 CB         23.6120   23.1455    1.1758 C.3       4 UNK        -0.2001 
     24 N          24.9936   24.4740   -0.3513 N.am      4 UNK        -0.4303 
     25 C          25.9787   25.2397   -0.8378 C.2       3 UNK         0.5044 
     26 O          26.8898   25.7208   -0.1568 O.2       3 UNK        -0.5152 
     27 CA         25.9439   25.5107   -2.3477 C.3       3 UNK         0.0319 
     28 CB         25.1811   26.8105   -2.6489 C.3       3 UNK        -0.2001 
     29 N          27.3238   25.6479   -2.7995 N.am      3 UNK        -0.4354 
     30 C          27.9925   24.7755   -3.5648 C.2       2 UNK         0.4964 
     31 O          27.4680   23.8418   -4.1725 O.2       2 UNK        -0.5047 
     32 CA         29.5190   24.9606   -3.6264 C.3       2 UNK         0.0288 
     33 CB         29.9080   25.9137   -4.7678 C.3       2 UNK        -0.2113 
     34 N          30.0264   25.4887   -2.3588 N.am      2 UNK        -0.4145 
     35 C          30.2414   24.7691   -1.2503 C.2       1 UNK         0.5006 
     36 O          30.2899   23.5372   -1.2543 O.2       1 UNK        -0.5103 
     37 C          26.4733   27.5730    3.4266 C.2       5 UNK         0.5055 
     38 O          26.1728   28.5007    4.1817 O.2       5 UNK        -0.5220 
     39 N          26.9832   27.7641    2.1998 N.am      6 UNK        -0.4450 
     40 CA         27.4738   29.0537    1.7124 C.3       6 UNK         0.0367 
     41 CB         27.6512   28.9926    0.1879 C.3       6 UNK        -0.1929 
     42 C          28.7855   29.4005    2.4393 C.2       6 UNK         0.5070 
     43 O          29.8398   28.8711    2.0911 O.2       6 UNK        -0.5237 
     44 N          28.6750   30.2296    3.4842 N.am      7 UNK        -0.4739 
     45 CA         29.7321   30.4929    4.4654 C.3       7 UNK         0.0276 
     46 CB         29.0844   31.0126    5.7597 C.3       7 UNK        -0.1927 
     47 C          30.8474   31.4429    3.9961 C.2       7 UNK         0.5013 
     48 O          31.8151   31.6262    4.7381 O.2       7 UNK        -0.5193 
     49 N          30.7037   32.0348    2.8017 N.am      8 UNK        -0.4253 
     50 CA         31.6536   32.9662    2.1833 C.3       8 UNK         0.0242 
     51 CB         31.1533   33.3338    0.7770 C.3       8 UNK        -0.2000 
     52 C          33.0828   32.3994    2.1120 C.2       8 UNK         0.4948 
     53 O          33.2529   31.2404    1.7328 O.2       8 UNK        -0.5275 
     54 N          34.0695   33.2239    2.4946 N.am      9 UNK        -0.4246 
     55 CA         35.4981   32.8915    2.5976 C.3       9 UNK         0.0261 
     56 CB         36.1100   32.6807    1.1953 C.3       9 UNK        -0.1959 
     57 C          35.7707   31.7112    3.5551 C.2       9 UNK         0.5033 
     58 O          36.5427   30.8116    3.2172 O.2       9 UNK        -0.5390 
     59 N          35.1033   31.7257    4.7213 N.am      10 UNK        -0.4215 
     60 CA         35.1353   30.6993    5.7753 C.3       10 UNK         0.0240 
     61 CB         36.5032   30.6961    6.4913 C.3       10 UNK        -0.1982 
     62 C          34.7226   29.3076    5.2540 C.2       10 UNK         0.4970 
     63 O          35.3969   28.3137    5.5300 O.2       10 UNK        -0.4916 
     64 N          33.6341   29.2901    4.4767 N.am      11 UNK        -0.4279 
     65 CA         33.0937   28.1425    3.7307 C.3       11 UNK         0.1003 
     66 C          33.9779   27.6554    2.5416 C.2       11 UNK         0.5709 
     67 N          35.0617   28.3298    2.1757 N.am      11 UNK        -0.7358 
     68 O          33.6554   26.6519    1.9078 O.2       11 UNK        -0.4999 
     69 C69        32.6518   26.9527    4.6305 C.3       12 UNK        -0.0954 
     70 S70        31.5410   27.4020    6.0058 S.3       12 UNK        -0.2268 
     71 C71        31.3469   25.7910    6.8333 C.3       12 UNK         0.0203 
     72 H72        32.7682   29.2182   -1.5562 H         1 UNK         0.0888 
     73 H73        32.5489   29.3141    0.1926 H         1 UNK         0.0888 
     74 H74        33.5849   28.0613   -0.5070 H         1 UNK         0.0888 
     75 H75        32.2932   26.4116    0.5782 H         1 UNK         0.3017 
     76 H76        29.4904   26.1234    0.2067 H         1 UNK         0.0873 
     77 H77        30.8393   25.3033    2.1895 H         1 UNK         0.0745 
     78 H78        31.4181   23.9813    1.2074 H         1 UNK         0.0745 
     79 H79        30.6981   22.4664    3.0337 H         1 UNK         0.0705 
     80 H80        29.0936   21.7935    3.1698 H         1 UNK         0.0705 
     81 H81        31.4323   24.2270    4.5876 H         1 UNK         0.1334 
     82 H82        28.7811   25.5108    7.7068 H         1 UNK         0.1417 
     83 H83        27.3985   22.8024    4.6803 H         1 UNK         0.1562 
     84 H84        26.4721   24.9171    7.6761 H         1 UNK         0.0748 
     85 H85        26.4571   23.1823    7.4726 H         1 UNK         0.0748 
     86 H86        25.7218   26.6055    5.9618 H         1 UNK         0.0940 
     87 H87        24.3745   26.3580    4.8858 H         1 UNK         0.0940 
     88 H88        27.3169   25.8571    4.2461 H         1 UNK         0.0703 
     89 H89        26.7770   24.5257    2.6130 H         1 UNK         0.3081 
     90 H90        25.7420   23.3326    1.2013 H         1 UNK         0.0719 
     91 H91        22.7151   23.7247    0.9523 H         1 UNK         0.0809 
     92 H92        23.6281   22.2801    0.5130 H         1 UNK         0.0809 
     93 H93        23.5104   22.7695    2.1950 H         1 UNK         0.0809 
     94 H94        24.2735   24.1611   -0.9859 H         1 UNK         0.2990 
     95 H95        25.4511   24.6775   -2.8533 H         1 UNK         0.0690 
     96 H96        25.6308   27.6696   -2.1504 H         1 UNK         0.0788 
     97 H97        24.1452   26.7433   -2.3139 H         1 UNK         0.0788 
     98 H98        25.1634   27.0177   -3.7190 H         1 UNK         0.0788 
     99 H99        27.8628   26.3337   -2.2901 H         1 UNK         0.2993 
    100 H100       29.9721   23.9851   -3.8169 H         1 UNK         0.0949 
    101 H101       30.9906   26.0172   -4.8440 H         1 UNK         0.0767 
    102 H102       29.5493   25.5391   -5.7275 H         1 UNK         0.0767 
    103 H103       29.4857   26.9096   -4.6259 H         1 UNK         0.0767 
    104 H104       30.0838   26.5024   -2.2603 H         1 UNK         0.3013 
    105 H105       27.1667   26.9584    1.6115 H         1 UNK         0.3121 
    106 H106       26.7313   29.8244    1.9307 H         1 UNK         0.0774 
    107 H107       28.0999   29.9101   -0.1946 H         1 UNK         0.0815 
    108 H108       28.2952   28.1663   -0.1079 H         1 UNK         0.0815 
    109 H109       26.6930   28.8621   -0.3135 H         1 UNK         0.0815 
    110 H110       27.7551   30.5789    3.7169 H         1 UNK         0.2987 
    111 H111       30.2154   29.5422    4.6907 H         1 UNK         0.0949 
    112 H112       29.8317   31.1615    6.5405 H         1 UNK         0.0806 
    113 H113       28.5801   31.9669    5.6038 H         1 UNK         0.0806 
    114 H114       28.3533   30.3033    6.1487 H         1 UNK         0.0806 
    115 H115       29.8897   31.7884    2.2593 H         1 UNK         0.3010 
    116 H116       31.6625   33.8694    2.7967 H         1 UNK         0.0829 
    117 H117       30.1680   33.7990    0.8122 H         1 UNK         0.0813 
    118 H118       31.8278   34.0428    0.2947 H         1 UNK         0.0813 
    119 H119       31.0890   32.4558    0.1322 H         1 UNK         0.0813 
    120 H120       33.8208   34.1592    2.7876 H         1 UNK         0.3038 
    121 H121       35.9875   33.7598    3.0416 H         1 UNK         0.0769 
    122 H122       37.1910   32.5491    1.2564 H         1 UNK         0.0811 
    123 H123       35.9249   33.5378    0.5479 H         1 UNK         0.0811 
    124 H124       35.7033   31.7956    0.7047 H         1 UNK         0.0811 
    125 H125       34.4482   32.4807    4.8746 H         1 UNK         0.3204 
    126 H126       34.3787   30.9848    6.5080 H         1 UNK         0.0748 
    127 H127       36.4984   30.0111    7.3401 H         1 UNK         0.0771 
    128 H128       37.3083   30.3832    5.8254 H         1 UNK         0.0771 
    129 H129       36.7517   31.6852    6.8759 H         1 UNK         0.0771 
    130 H130       33.1506   30.1687    4.3248 H         1 UNK         0.2980 
    131 H131       32.1952   28.5312    3.2529 H         1 UNK         0.0545 
    132 H132       35.6090   27.9925    1.4014 H         1 UNK         0.3459 
    133 H133       35.3493   29.1695    2.6635 H         1 UNK         0.3459 
    134 H134       32.1267   26.2242    4.0158 H         1 UNK         0.0616 
    135 H135       33.5229   26.4399    5.0409 H         1 UNK         0.0616 
    136 H136       31.1381   25.9705    7.8890 H         1 UNK         0.0634 
    137 H137       32.2878   25.2396    6.8031 H         1 UNK         0.0634 
@<TRIPOS>BOND
     1    1    2 1    
     2    1   72 1    
     3    1   73 1    
     4    1   74 1    
     5    2    3 2    
     6    2    4 am   BACKBONE|DICT|INTERRES
     7    4    5 1    
     8    4   75 1    
     9    5    6 1    
    10    5   35 1    
    11    5   76 1    
    12    6    7 1    
    13    6   77 1    
    14    6   78 1    
    15    7    8 1    
    16    8    9 1    
    17    8   79 1    
    18    8   80 1    
    19    9   10 ar   
    20    9   14 ar   
    21   10   11 ar   
    22   10   81 1    
    23   11   12 ar   
    24   11   71 1    
    25   12   13 ar   
    26   12   82 1    
    27   13   14 ar   
    28   13   15 1    
    29   14   83 1    
    30   15   16 1    
    31   15   84 1    
    32   15   85 1    
    33   16   17 1    
    34   17   18 1    
    35   17   86 1    
    36   17   87 1    
    37   18   19 1    
    38   18   37 1    
    39   18   88 1    
    40   19   20 am   BACKBONE|DICT|INTERRES
    41   19   89 1    
    42   20   21 2    
    43   20   22 1    
    44   22   23 1    
    45   22   24 1    
    46   22   90 1    
    47   23   91 1    
    48   23   92 1    
    49   23   93 1    
    50   24   25 am   BACKBONE|DICT|INTERRES
    51   24   94 1    
    52   25   26 2    
    53   25   27 1    
    54   27   28 1    
    55   27   29 1    
    56   27   95 1    
    57   28   96 1    
    58   28   97 1    
    59   28   98 1    
    60   29   30 am   BACKBONE|DICT|INTERRES
    61   29   99 1    
    62   30   31 2    
    63   30   32 1    
    64   32   33 1    
    65   32   34 1    
    66   32  100 1    
    67   33  101 1    
    68   33  102 1    
    69   33  103 1    
    70   34   35 am   BACKBONE|DICT|INTERRES
    71   34  104 1    
    72   35   36 2    
    73   37   38 2    
    74   37   39 am   BACKBONE|DICT|INTERRES
    75   39   40 1    
    76   39  105 1    
    77   40   41 1    
    78   40   42 1    
    79   40  106 1    
    80   41  107 1    
    81   41  108 1    
    82   41  109 1    
    83   42   43 2    
    84   42   44 am   BACKBONE|DICT|INTERRES
    85   44   45 1    
    86   44  110 1    
    87   45   46 1    
    88   45   47 1    
    89   45  111 1    
    90   46  112 1    
    91   46  113 1    
    92   46  114 1    
    93   47   48 2    
    94   47   49 am   BACKBONE|DICT|INTERRES
    95   49   50 1    
    96   49  115 1    
    97   50   51 1    
    98   50   52 1    
    99   50  116 1    
   100   51  117 1    
   101   51  118 1    
   102   51  119 1    
   103   52   53 2    
   104   52   54 am   BACKBONE|DICT|INTERRES
   105   54   55 1    
   106   54  120 1    
   107   55   56 1    
   108   55   57 1    
   109   55  121 1    
   110   56  122 1    
   111   56  123 1    
   112   56  124 1    
   113   57   58 2    
   114   57   59 am   BACKBONE|DICT|INTERRES
   115   59   60 1    
   116   59  125 1    
   117   60   61 1    
   118   60   62 1    
   119   60  126 1    
   120   61  127 1    
   121   61  128 1    
   122   61  129 1    
   123   62   63 2    
   124   62   64 am   BACKBONE|DICT|INTERRES
   125   64   65 1    
   126   64  130 1    
   127   65   66 1    
   128   65   69 1    
   129   65  131 1    
   130   66   67 am   BACKBONE|DICT|INTERRES
   131   66   68 2    
   132   67  132 1    
   133   67  133 1    
   134   69   70 1    
   135   69  134 1    
   136   69  135 1    
   137   70   71 1    
   138   71  136 1    
   139   71  137 1    
@<TRIPOS>SUBSTRUCTURE
     1 UNK         1 GROUP             0       ****    0 ROOT    
