@<TRIPOS>MOLECULE
3R136
137   139    1
SMALL
USER_CHARGES


@<TRIPOS>ATOM
      1 CA         27.8804   23.2768   -2.4501 C.3       0 UNK        -0.1979 
      2 C          28.2765   22.7034   -1.0980 C.2       0 UNK         0.4864 
      3 O          27.6825   21.7194   -0.6536 O.2       0 UNK        -0.5359 
      4 N          29.2711   23.3196   -0.4434 N.am      1 UNK        -0.4318 
      5 CA         29.8657   22.9508    0.8516 C.3       1 UNK         0.0824 
      6 C6         30.4712   21.5169    0.9157 C.3       12 UNK        -0.0944 
      7 S7         31.5268   21.0979   -0.5190 S.3       12 UNK        -0.2672 
      8 C8         33.2046   21.4857    0.0809 C.3       12 UNK         0.0333 
      9 C9         33.3594   22.9467    0.4824 C.ar      12 UNK        -0.0807 
     10 C10        33.8051   23.2739    1.7664 C.ar      12 UNK        -0.0894 
     11 C11        33.9121   24.6100    2.1617 C.ar      12 UNK        -0.0804 
     12 C12        33.5771   25.6221    1.2604 C.ar      12 UNK        -0.0824 
     13 C13        33.0936   25.3085   -0.0133 C.ar      12 UNK        -0.0762 
     14 C14        33.0244   23.9707   -0.4111 C.ar      12 UNK        -0.0782 
     15 C15        32.5864   26.4088   -0.9356 C.3       12 UNK         0.0230 
     16 S16        30.7598   26.4777   -0.9529 S.3       12 UNK        -0.2608 
     17 C17        30.3726   26.9191    0.7760 C.3       12 UNK        -0.0989 
     18 CA         29.7672   28.3325    0.9203 C.3       5 UNK         0.0716 
     19 N          28.4395   28.4110    0.3000 N.am      5 UNK        -0.4135 
     20 C          27.5946   29.4517    0.3325 C.2       4 UNK         0.5031 
     21 O          27.8781   30.5498    0.8116 O.2       4 UNK        -0.5229 
     22 CA         26.1639   29.2098   -0.1819 C.3       4 UNK         0.0329 
     23 CB         26.0389   29.6865   -1.6372 C.3       4 UNK        -0.2001 
     24 N          25.6865   27.8216   -0.0802 N.am      4 UNK        -0.4303 
     25 C          25.6928   27.0495    1.0187 C.2       3 UNK         0.5044 
     26 O          26.1653   27.4062    2.1007 O.2       3 UNK        -0.5152 
     27 CA         25.1244   25.6278    0.8847 C.3       3 UNK         0.0319 
     28 CB         25.0691   25.1114   -0.5712 C.3       3 UNK        -0.2001 
     29 N          25.9358   24.7332    1.7062 N.am      3 UNK        -0.4354 
     30 C          25.5563   23.5463    2.1909 C.2       2 UNK         0.4964 
     31 O          24.4361   23.0619    2.0193 O.2       2 UNK        -0.5047 
     32 CA         26.6382   22.7574    2.9484 C.3       2 UNK         0.0288 
     33 CB         26.1357   21.3972    3.4684 C.3       2 UNK        -0.2113 
     34 N          27.7649   22.5315    2.0447 N.am      2 UNK        -0.4145 
     35 C          28.9040   23.2319    2.0231 C.2       1 UNK         0.5006 
     36 O          29.1785   24.1106    2.8406 O.2       1 UNK        -0.5103 
     37 C          29.7869   28.7403    2.4106 C.2       5 UNK         0.5055 
     38 O          30.8012   29.2726    2.8643 O.2       5 UNK        -0.5220 
     39 N          28.6811   28.5265    3.1397 N.am      6 UNK        -0.4450 
     40 CA         28.5184   28.9487    4.5332 C.3       6 UNK         0.0367 
     41 CB         27.2159   28.3591    5.0949 C.3       6 UNK        -0.1929 
     42 C          28.5499   30.4768    4.7292 C.2       6 UNK         0.5070 
     43 O          28.8774   30.9294    5.8255 O.2       6 UNK        -0.5237 
     44 N          28.2294   31.2390    3.6751 N.am      7 UNK        -0.4739 
     45 CA         28.3131   32.6981    3.6425 C.3       7 UNK         0.0276 
     46 CB         26.9881   33.2710    3.1123 C.3       7 UNK        -0.1927 
     47 C          29.4883   33.1599    2.7692 C.2       7 UNK         0.5013 
     48 O          30.2500   34.0266    3.1966 O.2       7 UNK        -0.5193 
     49 N          29.6152   32.5813    1.5659 N.am      8 UNK        -0.4253 
     50 CA         30.5791   32.9846    0.5386 C.3       8 UNK         0.0242 
     51 CB         30.2002   32.3329   -0.8018 C.3       8 UNK        -0.2000 
     52 C          32.0402   32.6712    0.8946 C.2       8 UNK         0.4948 
     53 O          32.9132   33.4940    0.6160 O.2       8 UNK        -0.5275 
     54 N          32.2788   31.4981    1.4946 N.am      9 UNK        -0.4246 
     55 CA         33.6028   31.0342    1.9217 C.3       9 UNK         0.0261 
     56 CB         33.8482   29.6361    1.3273 C.3       9 UNK        -0.1959 
     57 C          33.7410   31.0063    3.4539 C.2       9 UNK         0.5033 
     58 O          34.8253   30.6918    3.9464 O.2       9 UNK        -0.5390 
     59 N          32.6495   31.3113    4.1741 N.am      10 UNK        -0.4215 
     60 CA         32.4867   31.2389    5.6303 C.3       10 UNK         0.0240 
     61 CB         33.3549   32.3048    6.3333 C.3       10 UNK        -0.1982 
     62 C          32.7008   29.8165    6.1901 C.2       10 UNK         0.4970 
     63 O          33.2405   29.6700    7.2888 O.2       10 UNK        -0.4916 
     64 N          32.2959   28.7947    5.4207 N.am      11 UNK        -0.4279 
     65 CA         32.4236   27.3773    5.7879 C.3       11 UNK         0.1003 
     66 C          31.5602   26.9903    7.0238 C.2       11 UNK         0.5709 
     67 N          32.0575   26.1101    7.8821 N.am      11 UNK        -0.7358 
     68 O          30.4370   27.4583    7.1966 O.2       11 UNK        -0.4999 
     69 C69        32.1489   26.4579    4.5678 C.3       12 UNK        -0.0954 
     70 S70        32.9633   24.8319    4.7444 S.3       12 UNK        -0.2268 
     71 C71        34.3542   24.9530    3.5754 C.3       12 UNK         0.0203 
     72 H72        26.7954   23.3179   -2.5411 H         1 UNK         0.0888 
     73 H73        28.2716   24.2840   -2.5947 H         1 UNK         0.0888 
     74 H74        28.2634   22.6429   -3.2493 H         1 UNK         0.0888 
     75 H75        29.6956   24.1315   -0.8721 H         1 UNK         0.3017 
     76 H76        30.6904   23.6497    0.9892 H         1 UNK         0.0873 
     77 H77        31.0510   21.3928    1.8323 H         1 UNK         0.0745 
     78 H78        29.6803   20.7663    0.9592 H         1 UNK         0.0745 
     79 H79        33.9226   21.2587   -0.7081 H         1 UNK         0.0705 
     80 H80        33.4411   20.8223    0.9143 H         1 UNK         0.0705 
     81 H81        34.0508   22.4898    2.4697 H         1 UNK         0.1334 
     82 H82        33.6490   26.6540    1.5700 H         1 UNK         0.1417 
     83 H83        32.6523   23.7228   -1.3961 H         1 UNK         0.1562 
     84 H84        32.9452   26.2293   -1.9501 H         1 UNK         0.0748 
     85 H85        32.9824   27.3807   -0.6382 H         1 UNK         0.0748 
     86 H86        31.2732   26.8353    1.3806 H         1 UNK         0.0940 
     87 H87        29.6876   26.1704    1.1761 H         1 UNK         0.0940 
     88 H88        30.4099   29.0401    0.3935 H         1 UNK         0.0703 
     89 H89        28.1178   27.5660   -0.1466 H         1 UNK         0.3081 
     90 H90        25.5011   29.8197    0.4351 H         1 UNK         0.0719 
     91 H91        26.6473   29.0848   -2.3137 H         1 UNK         0.0809 
     92 H92        25.0061   29.6425   -1.9833 H         1 UNK         0.0809 
     93 H93        26.3668   30.7225   -1.7386 H         1 UNK         0.0809 
     94 H94        25.2862   27.4305   -0.9209 H         1 UNK         0.2990 
     95 H95        24.1112   25.6530    1.2909 H         1 UNK         0.0690 
     96 H96        26.0459   25.1620   -1.0527 H         1 UNK         0.0788 
     97 H97        24.3664   25.6880   -1.1738 H         1 UNK         0.0788 
     98 H98        24.7354   24.0744   -0.6143 H         1 UNK         0.0788 
     99 H99        26.8452   25.0942    1.9636 H         1 UNK         0.2993 
    100 H100       26.9461   23.3575    3.8076 H         1 UNK         0.0949 
    101 H101       25.8021   20.7511    2.6552 H         1 UNK         0.0767 
    102 H102       26.9188   20.8702    4.0138 H         1 UNK         0.0767 
    103 H103       25.2953   21.5261    4.1519 H         1 UNK         0.0767 
    104 H104       27.5878   21.9320    1.2410 H         1 UNK         0.3013 
    105 H105       27.8676   28.0994    2.7025 H         1 UNK         0.3121 
    106 H106       29.3525   28.5340    5.0993 H         1 UNK         0.0774 
    107 H107       27.0967   28.6125    6.1491 H         1 UNK         0.0815 
    108 H108       26.3409   28.7378    4.5651 H         1 UNK         0.0815 
    109 H109       27.2088   27.2715    5.0206 H         1 UNK         0.0815 
    110 H110       27.9882   30.7829    2.8014 H         1 UNK         0.2987 
    111 H111       28.4728   33.0962    4.6472 H         1 UNK         0.0949 
    112 H112       26.7561   32.9048    2.1112 H         1 UNK         0.0806 
    113 H113       26.1561   33.0056    3.7647 H         1 UNK         0.0806 
    114 H114       27.0254   34.3601    3.0623 H         1 UNK         0.0806 
    115 H115       28.9350   31.8735    1.2900 H         1 UNK         0.3010 
    116 H116       30.4982   34.0674    0.4201 H         1 UNK         0.0829 
    117 H117       30.8784   32.6490   -1.5956 H         1 UNK         0.0813 
    118 H118       30.2421   31.2446   -0.7511 H         1 UNK         0.0813 
    119 H119       29.1918   32.6129   -1.1073 H         1 UNK         0.0813 
    120 H120       31.5048   30.8778    1.7009 H         1 UNK         0.3038 
    121 H121       34.3832   31.7002    1.5480 H         1 UNK         0.0769 
    122 H122       34.8346   29.2593    1.6011 H         1 UNK         0.0811 
    123 H123       33.8013   29.6570    0.2386 H         1 UNK         0.0811 
    124 H124       33.1132   28.9148    1.6817 H         1 UNK         0.0811 
    125 H125       31.8147   31.5469    3.6582 H         1 UNK         0.3204 
    126 H126       31.4450   31.4876    5.8318 H         1 UNK         0.0748 
    127 H127       33.1327   32.3490    7.4002 H         1 UNK         0.0771 
    128 H128       34.4196   32.0924    6.2316 H         1 UNK         0.0771 
    129 H129       33.1700   33.2982    5.9244 H         1 UNK         0.0771 
    130 H130       31.8374   28.9953    4.5380 H         1 UNK         0.2980 
    131 H131       33.4713   27.2484    6.0684 H         1 UNK         0.0545 
    132 H132       31.5076   25.8409    8.6824 H         1 UNK         0.3459 
    133 H133       32.9648   25.6969    7.7331 H         1 UNK         0.3459 
    134 H134       31.0779   26.3082    4.4158 H         1 UNK         0.0616 
    135 H135       32.5123   26.9281    3.6541 H         1 UNK         0.0616 
    136 H136       34.7935   25.9509    3.6198 H         1 UNK         0.0634 
    137 H137       35.1368   24.2608    3.8894 H         1 UNK         0.0634 
@<TRIPOS>BOND
     1    1    2 1    
     2    1   72 1    
     3    1   73 1    
     4    1   74 1    
     5    2    3 2    
     6    2    4 am   BACKBONE|DICT|INTERRES
     7    4    5 1    
     8    4   75 1    
     9    5    6 1    
    10    5   35 1    
    11    5   76 1    
    12    6    7 1    
    13    6   77 1    
    14    6   78 1    
    15    7    8 1    
    16    8    9 1    
    17    8   79 1    
    18    8   80 1    
    19    9   10 ar   
    20    9   14 ar   
    21   10   11 ar   
    22   10   81 1    
    23   11   12 ar   
    24   11   71 1    
    25   12   13 ar   
    26   12   82 1    
    27   13   14 ar   
    28   13   15 1    
    29   14   83 1    
    30   15   16 1    
    31   15   84 1    
    32   15   85 1    
    33   16   17 1    
    34   17   18 1    
    35   17   86 1    
    36   17   87 1    
    37   18   19 1    
    38   18   37 1    
    39   18   88 1    
    40   19   20 am   BACKBONE|DICT|INTERRES
    41   19   89 1    
    42   20   21 2    
    43   20   22 1    
    44   22   23 1    
    45   22   24 1    
    46   22   90 1    
    47   23   91 1    
    48   23   92 1    
    49   23   93 1    
    50   24   25 am   BACKBONE|DICT|INTERRES
    51   24   94 1    
    52   25   26 2    
    53   25   27 1    
    54   27   28 1    
    55   27   29 1    
    56   27   95 1    
    57   28   96 1    
    58   28   97 1    
    59   28   98 1    
    60   29   30 am   BACKBONE|DICT|INTERRES
    61   29   99 1    
    62   30   31 2    
    63   30   32 1    
    64   32   33 1    
    65   32   34 1    
    66   32  100 1    
    67   33  101 1    
    68   33  102 1    
    69   33  103 1    
    70   34   35 am   BACKBONE|DICT|INTERRES
    71   34  104 1    
    72   35   36 2    
    73   37   38 2    
    74   37   39 am   BACKBONE|DICT|INTERRES
    75   39   40 1    
    76   39  105 1    
    77   40   41 1    
    78   40   42 1    
    79   40  106 1    
    80   41  107 1    
    81   41  108 1    
    82   41  109 1    
    83   42   43 2    
    84   42   44 am   BACKBONE|DICT|INTERRES
    85   44   45 1    
    86   44  110 1    
    87   45   46 1    
    88   45   47 1    
    89   45  111 1    
    90   46  112 1    
    91   46  113 1    
    92   46  114 1    
    93   47   48 2    
    94   47   49 am   BACKBONE|DICT|INTERRES
    95   49   50 1    
    96   49  115 1    
    97   50   51 1    
    98   50   52 1    
    99   50  116 1    
   100   51  117 1    
   101   51  118 1    
   102   51  119 1    
   103   52   53 2    
   104   52   54 am   BACKBONE|DICT|INTERRES
   105   54   55 1    
   106   54  120 1    
   107   55   56 1    
   108   55   57 1    
   109   55  121 1    
   110   56  122 1    
   111   56  123 1    
   112   56  124 1    
   113   57   58 2    
   114   57   59 am   BACKBONE|DICT|INTERRES
   115   59   60 1    
   116   59  125 1    
   117   60   61 1    
   118   60   62 1    
   119   60  126 1    
   120   61  127 1    
   121   61  128 1    
   122   61  129 1    
   123   62   63 2    
   124   62   64 am   BACKBONE|DICT|INTERRES
   125   64   65 1    
   126   64  130 1    
   127   65   66 1    
   128   65   69 1    
   129   65  131 1    
   130   66   67 am   BACKBONE|DICT|INTERRES
   131   66   68 2    
   132   67  132 1    
   133   67  133 1    
   134   69   70 1    
   135   69  134 1    
   136   69  135 1    
   137   70   71 1    
   138   71  136 1    
   139   71  137 1    
@<TRIPOS>SUBSTRUCTURE
     1 UNK         1 GROUP             0       ****    0 ROOT    
