@<TRIPOS>MOLECULE
3R136
137   139    1
SMALL
USER_CHARGES


@<TRIPOS>ATOM
      1 CA         31.1037   26.3972   -5.1131 C.3       0 UNK        -0.1979 
      2 C          30.0962   26.5464   -3.9829 C.2       0 UNK         0.4864 
      3 O          29.1304   27.2977   -4.1213 O.2       0 UNK        -0.5359 
      4 N          30.3153   25.8382   -2.8656 N.am      1 UNK        -0.4318 
      5 CA         29.4454   25.8559   -1.6833 C.3       1 UNK         0.0824 
      6 C6         30.1738   25.2786   -0.4420 C.3       12 UNK        -0.0944 
      7 S7         29.4646   25.9265    1.1001 S.3       12 UNK        -0.2672 
      8 C8         30.6630   25.3633    2.3470 C.3       12 UNK         0.0333 
      9 C9         30.2868   25.9402    3.7020 C.ar      12 UNK        -0.0807 
     10 C10        30.9114   27.0977    4.1757 C.ar      12 UNK        -0.0894 
     11 C11        30.4918   27.6932    5.3684 C.ar      12 UNK        -0.0804 
     12 C12        29.4161   27.1430    6.0699 C.ar      12 UNK        -0.0824 
     13 C13        28.7743   25.9937    5.5988 C.ar      12 UNK        -0.0762 
     14 C14        29.2490   25.3661    4.4425 C.ar      12 UNK        -0.0782 
     15 C15        27.5306   25.4727    6.3078 C.3       12 UNK         0.0230 
     16 S16        26.0622   25.4158    5.2184 S.3       12 UNK        -0.2608 
     17 C17        26.0260   27.0781    4.4464 C.3       12 UNK        -0.0989 
     18 CA         26.5327   27.0436    2.9752 C.3       5 UNK         0.0716 
     19 N          25.8171   26.0929    2.1134 N.am      5 UNK        -0.4135 
     20 C          24.5286   26.1602    1.7471 C.2       4 UNK         0.5031 
     21 O          23.7399   27.0116    2.1603 O.2       4 UNK        -0.5229 
     22 CA         24.0343   25.1299    0.7177 C.3       4 UNK         0.0329 
     23 CB         23.6010   25.8359   -0.5796 C.3       4 UNK        -0.2001 
     24 N          25.0575   24.1395    0.3770 N.am      4 UNK        -0.4303 
     25 C          25.1357   22.8986    0.8790 C.2       3 UNK         0.5044 
     26 O          24.3708   22.4678    1.7433 O.2       3 UNK        -0.5152 
     27 CA         26.2616   21.9865    0.3372 C.3       3 UNK         0.0319 
     28 CB         25.8372   20.5043    0.2636 C.3       3 UNK        -0.2001 
     29 N          26.8254   22.4377   -0.9440 N.am      3 UNK        -0.4354 
     30 C          26.1827   22.5893   -2.1143 C.2       2 UNK         0.4964 
     31 O          25.0264   22.2136   -2.3121 O.2       2 UNK        -0.5047 
     32 CA         26.9437   23.3204   -3.2428 C.3       2 UNK         0.0288 
     33 CB         25.9988   24.1883   -4.1019 C.3       2 UNK        -0.2113 
     34 N          28.0917   24.1273   -2.7951 N.am      2 UNK        -0.4145 
     35 C          28.0914   25.1509   -1.9224 C.2       1 UNK         0.5006 
     36 O          27.0948   25.5252   -1.2979 O.2       1 UNK        -0.5103 
     37 C          26.6523   28.4286    2.3006 C.2       5 UNK         0.5055 
     38 O          26.5392   29.4604    2.9650 O.2       5 UNK        -0.5220 
     39 N          26.8545   28.4124    0.9736 N.am      6 UNK        -0.4450 
     40 CA         26.9182   29.5947    0.1160 C.3       6 UNK         0.0367 
     41 CB         26.4062   29.2129   -1.2832 C.3       6 UNK        -0.1929 
     42 C          28.3268   30.2032    0.0160 C.2       6 UNK         0.5070 
     43 O          28.4377   31.3939   -0.2794 O.2       6 UNK        -0.5237 
     44 N          29.3738   29.3949    0.2294 N.am      7 UNK        -0.4739 
     45 CA         30.7700   29.8345    0.1688 C.3       7 UNK         0.0276 
     46 CB         31.6573   28.6491   -0.2466 C.3       7 UNK        -0.1927 
     47 C          31.2328   30.3882    1.5235 C.2       7 UNK         0.5013 
     48 O          30.6905   30.0056    2.5612 O.2       7 UNK        -0.5193 
     49 N          32.2646   31.2421    1.4913 N.am      8 UNK        -0.4253 
     50 CA         32.9457   31.7442    2.6891 C.3       8 UNK         0.0242 
     51 CB         33.7380   33.0139    2.3386 C.3       8 UNK        -0.2000 
     52 C          33.8702   30.6922    3.3268 C.2       8 UNK         0.4948 
     53 O          34.0257   30.6981    4.5484 O.2       8 UNK        -0.5275 
     54 N          34.4575   29.8161    2.4925 N.am      9 UNK        -0.4246 
     55 CA         35.3631   28.7142    2.8433 C.3       9 UNK         0.0261 
     56 CB         34.5530   27.5266    3.4109 C.3       9 UNK        -0.1959 
     57 C          36.5148   29.1851    3.7539 C.2       9 UNK         0.5033 
     58 O          37.3673   29.9486    3.2961 O.2       9 UNK        -0.5390 
     59 N          36.4914   28.7566    5.0199 N.am      10 UNK        -0.4215 
     60 CA         37.3521   29.2365    6.0992 C.3       10 UNK         0.0240 
     61 CB         38.4004   28.1573    6.4323 C.3       10 UNK        -0.1982 
     62 C          36.5038   29.6379    7.3212 C.2       10 UNK         0.4970 
     63 O          36.9940   29.5561    8.4488 O.2       10 UNK        -0.4916 
     64 N          35.2465   30.0472    7.0926 N.am      11 UNK        -0.4279 
     65 CA         34.2958   30.4417    8.1457 C.3       11 UNK         0.1003 
     66 C          34.5486   31.8583    8.7395 C.2       11 UNK         0.5709 
     67 N          35.3934   32.6921    8.1435 N.am      11 UNK        -0.7358 
     68 O          33.9735   32.2034    9.7693 O.2       11 UNK        -0.4999 
     69 C69        32.8226   30.2931    7.6818 C.3       12 UNK        -0.0954 
     70 S70        32.4038   28.5992    7.1477 S.3       12 UNK        -0.2268 
     71 C71        31.1589   28.9624    5.8738 C.3       12 UNK         0.0203 
     72 H72        30.6094   26.0227   -6.0090 H         1 UNK         0.0888 
     73 H73        31.5487   27.3638   -5.3480 H         1 UNK         0.0888 
     74 H74        31.9077   25.7079   -4.8557 H         1 UNK         0.0888 
     75 H75        31.1331   25.2473   -2.8075 H         1 UNK         0.3017 
     76 H76        29.2153   26.9059   -1.4886 H         1 UNK         0.0873 
     77 H77        30.1565   24.1870   -0.4273 H         1 UNK         0.0745 
     78 H78        31.2269   25.5638   -0.4572 H         1 UNK         0.0745 
     79 H79        30.6693   24.2731    2.3874 H         1 UNK         0.0705 
     80 H80        31.6684   25.6766    2.0616 H         1 UNK         0.0705 
     81 H81        31.6964   27.5616    3.5968 H         1 UNK         0.1334 
     82 H82        29.0644   27.6286    6.9701 H         1 UNK         0.1417 
     83 H83        28.7454   24.4856    4.0668 H         1 UNK         0.1562 
     84 H84        27.2929   26.0886    7.1766 H         1 UNK         0.0748 
     85 H85        27.7296   24.4697    6.6876 H         1 UNK         0.0748 
     86 H86        26.6269   27.7649    5.0449 H         1 UNK         0.0940 
     87 H87        25.0049   27.4594    4.4908 H         1 UNK         0.0940 
     88 H88        27.5560   26.6885    3.0091 H         1 UNK         0.0703 
     89 H89        26.3757   25.3479    1.7245 H         1 UNK         0.3081 
     90 H90        23.1602   24.6345    1.1452 H         1 UNK         0.0719 
     91 H91        22.8059   26.5579   -0.3885 H         1 UNK         0.0809 
     92 H92        24.4288   26.3756   -1.0414 H         1 UNK         0.0809 
     93 H93        23.2203   25.1215   -1.3100 H         1 UNK         0.0809 
     94 H94        25.7388   24.4292   -0.3191 H         1 UNK         0.2990 
     95 H95        27.0735   22.0584    1.0624 H         1 UNK         0.0690 
     96 H96        26.6457   19.8781   -0.1133 H         1 UNK         0.0788 
     97 H97        24.9716   20.3613   -0.3837 H         1 UNK         0.0788 
     98 H98        25.5689   20.1241    1.2501 H         1 UNK         0.0788 
     99 H99        27.7776   22.7712   -0.9000 H         1 UNK         0.2993 
    100 H100       27.3500   22.5364   -3.8838 H         1 UNK         0.0949 
    101 H101       25.5000   24.9529   -3.5047 H         1 UNK         0.0767 
    102 H102       26.5408   24.6911   -4.9030 H         1 UNK         0.0767 
    103 H103       25.2218   23.5829   -4.5704 H         1 UNK         0.0767 
    104 H104       28.9742   23.8959   -3.2297 H         1 UNK         0.3013 
    105 H105       26.9337   27.5165    0.5116 H         1 UNK         0.3121 
    106 H106       26.2556   30.3632    0.5207 H         1 UNK         0.0774 
    107 H107       27.0236   28.4411   -1.7454 H         1 UNK         0.0815 
    108 H108       25.3815   28.8431   -1.2436 H         1 UNK         0.0815 
    109 H109       26.4121   30.0762   -1.9501 H         1 UNK         0.0815 
    110 H110       29.2080   28.4541    0.5581 H         1 UNK         0.2987 
    111 H111       30.8684   30.6193   -0.5849 H         1 UNK         0.0949 
    112 H112       31.3269   28.2154   -1.1900 H         1 UNK         0.0806 
    113 H113       32.6922   28.9634   -0.3860 H         1 UNK         0.0806 
    114 H114       31.6595   27.8632    0.5088 H         1 UNK         0.0806 
    115 H115       32.6419   31.5249    0.5978 H         1 UNK         0.3010 
    116 H116       32.1904   32.0100    3.4325 H         1 UNK         0.0829 
    117 H117       34.5092   32.8196    1.5922 H         1 UNK         0.0813 
    118 H118       34.2351   33.4172    3.2222 H         1 UNK         0.0813 
    119 H119       33.0840   33.7957    1.9520 H         1 UNK         0.0813 
    120 H120       34.2921   29.9384    1.5047 H         1 UNK         0.3038 
    121 H121       35.8285   28.3814    1.9142 H         1 UNK         0.0769 
    122 H122       35.2019   26.6875    3.6657 H         1 UNK         0.0811 
    123 H123       33.8427   27.1583    2.6710 H         1 UNK         0.0811 
    124 H124       33.9881   27.7995    4.3034 H         1 UNK         0.0811 
    125 H125       35.7332   28.1491    5.2993 H         1 UNK         0.3204 
    126 H126       37.8777   30.1408    5.7860 H         1 UNK         0.0748 
    127 H127       37.9337   27.2453    6.8066 H         1 UNK         0.0771 
    128 H128       38.9902   27.8956    5.5537 H         1 UNK         0.0771 
    129 H129       39.0980   28.5065    7.1947 H         1 UNK         0.0771 
    130 H130       34.9073   30.1544    6.1390 H         1 UNK         0.2980 
    131 H131       34.4331   29.7506    8.9796 H         1 UNK         0.0545 
    132 H132       35.5518   33.6041    8.5419 H         1 UNK         0.3459 
    133 H133       35.8624   32.4213    7.2946 H         1 UNK         0.3459 
    134 H134       32.6168   30.9897    6.8671 H         1 UNK         0.0616 
    135 H135       32.1365   30.5567    8.4889 H         1 UNK         0.0616 
    136 H136       31.6329   29.4964    5.0502 H         1 UNK         0.0634 
    137 H137       30.4048   29.6357    6.2840 H         1 UNK         0.0634 
@<TRIPOS>BOND
     1    1    2 1    
     2    1   72 1    
     3    1   73 1    
     4    1   74 1    
     5    2    3 2    
     6    2    4 am   BACKBONE|DICT|INTERRES
     7    4    5 1    
     8    4   75 1    
     9    5    6 1    
    10    5   35 1    
    11    5   76 1    
    12    6    7 1    
    13    6   77 1    
    14    6   78 1    
    15    7    8 1    
    16    8    9 1    
    17    8   79 1    
    18    8   80 1    
    19    9   10 ar   
    20    9   14 ar   
    21   10   11 ar   
    22   10   81 1    
    23   11   12 ar   
    24   11   71 1    
    25   12   13 ar   
    26   12   82 1    
    27   13   14 ar   
    28   13   15 1    
    29   14   83 1    
    30   15   16 1    
    31   15   84 1    
    32   15   85 1    
    33   16   17 1    
    34   17   18 1    
    35   17   86 1    
    36   17   87 1    
    37   18   19 1    
    38   18   37 1    
    39   18   88 1    
    40   19   20 am   BACKBONE|DICT|INTERRES
    41   19   89 1    
    42   20   21 2    
    43   20   22 1    
    44   22   23 1    
    45   22   24 1    
    46   22   90 1    
    47   23   91 1    
    48   23   92 1    
    49   23   93 1    
    50   24   25 am   BACKBONE|DICT|INTERRES
    51   24   94 1    
    52   25   26 2    
    53   25   27 1    
    54   27   28 1    
    55   27   29 1    
    56   27   95 1    
    57   28   96 1    
    58   28   97 1    
    59   28   98 1    
    60   29   30 am   BACKBONE|DICT|INTERRES
    61   29   99 1    
    62   30   31 2    
    63   30   32 1    
    64   32   33 1    
    65   32   34 1    
    66   32  100 1    
    67   33  101 1    
    68   33  102 1    
    69   33  103 1    
    70   34   35 am   BACKBONE|DICT|INTERRES
    71   34  104 1    
    72   35   36 2    
    73   37   38 2    
    74   37   39 am   BACKBONE|DICT|INTERRES
    75   39   40 1    
    76   39  105 1    
    77   40   41 1    
    78   40   42 1    
    79   40  106 1    
    80   41  107 1    
    81   41  108 1    
    82   41  109 1    
    83   42   43 2    
    84   42   44 am   BACKBONE|DICT|INTERRES
    85   44   45 1    
    86   44  110 1    
    87   45   46 1    
    88   45   47 1    
    89   45  111 1    
    90   46  112 1    
    91   46  113 1    
    92   46  114 1    
    93   47   48 2    
    94   47   49 am   BACKBONE|DICT|INTERRES
    95   49   50 1    
    96   49  115 1    
    97   50   51 1    
    98   50   52 1    
    99   50  116 1    
   100   51  117 1    
   101   51  118 1    
   102   51  119 1    
   103   52   53 2    
   104   52   54 am   BACKBONE|DICT|INTERRES
   105   54   55 1    
   106   54  120 1    
   107   55   56 1    
   108   55   57 1    
   109   55  121 1    
   110   56  122 1    
   111   56  123 1    
   112   56  124 1    
   113   57   58 2    
   114   57   59 am   BACKBONE|DICT|INTERRES
   115   59   60 1    
   116   59  125 1    
   117   60   61 1    
   118   60   62 1    
   119   60  126 1    
   120   61  127 1    
   121   61  128 1    
   122   61  129 1    
   123   62   63 2    
   124   62   64 am   BACKBONE|DICT|INTERRES
   125   64   65 1    
   126   64  130 1    
   127   65   66 1    
   128   65   69 1    
   129   65  131 1    
   130   66   67 am   BACKBONE|DICT|INTERRES
   131   66   68 2    
   132   67  132 1    
   133   67  133 1    
   134   69   70 1    
   135   69  134 1    
   136   69  135 1    
   137   70   71 1    
   138   71  136 1    
   139   71  137 1    
@<TRIPOS>SUBSTRUCTURE
     1 UNK         1 GROUP             0       ****    0 ROOT    
