@<TRIPOS>MOLECULE
3R136
137   139    1
SMALL
USER_CHARGES


@<TRIPOS>ATOM
      1 CA         30.3370   24.6131    4.2383 C.3       0 UNK        -0.1979 
      2 C          29.5958   23.3500    3.8343 C.2       0 UNK         0.4864 
      3 O          28.6563   22.9439    4.5193 O.2       0 UNK        -0.5359 
      4 N          30.0102   22.7246    2.7228 N.am      1 UNK        -0.4318 
      5 CA         29.4003   21.5002    2.1793 C.3       1 UNK         0.0824 
      6 C6         30.2771   20.8083    1.1023 C.3       12 UNK        -0.0944 
      7 S7         32.0104   20.5517    1.6168 S.3       12 UNK        -0.2672 
      8 C8         32.9103   21.6163    0.4409 C.3       12 UNK         0.0333 
      9 C9         32.6026   23.0900    0.6642 C.ar      12 UNK        -0.0807 
     10 C10        33.2297   23.7856    1.7002 C.ar      12 UNK        -0.0894 
     11 C11        32.9386   25.1314    1.9408 C.ar      12 UNK        -0.0804 
     12 C12        32.0038   25.7802    1.1204 C.ar      12 UNK        -0.0824 
     13 C13        31.3719   25.0971    0.0757 C.ar      12 UNK        -0.0762 
     14 C14        31.6854   23.7550   -0.1537 C.ar      12 UNK        -0.0782 
     15 C15        30.3263   25.7884   -0.7902 C.3       12 UNK         0.0230 
     16 S16        30.9994   27.2212   -1.6882 S.3       12 UNK        -0.2608 
     17 C17        30.3887   28.6169   -0.6794 C.3       12 UNK        -0.0989 
     18 CA         29.2369   29.3740   -1.3895 C.3       5 UNK         0.0716 
     19 N          28.0683   28.5146   -1.6159 N.am      5 UNK        -0.4135 
     20 C          27.1491   28.7160   -2.5695 C.2       4 UNK         0.5031 
     21 O          27.2122   29.6242   -3.3989 O.2       4 UNK        -0.5229 
     22 CA         25.9409   27.7602   -2.6003 C.3       4 UNK         0.0329 
     23 CB         26.1775   26.6420   -3.6288 C.3       4 UNK        -0.2001 
     24 N          25.5815   27.1511   -1.3132 N.am      4 UNK        -0.4303 
     25 C          25.2890   27.7972   -0.1737 C.2       3 UNK         0.5044 
     26 O          25.3619   29.0191   -0.0470 O.2       3 UNK        -0.5152 
     27 CA         24.8469   26.9463    1.0335 C.3       3 UNK         0.0319 
     28 CB         23.3460   27.1408    1.3035 C.3       3 UNK        -0.2001 
     29 N          25.1236   25.5129    0.8833 N.am      3 UNK        -0.4354 
     30 C          26.3447   24.9686    0.9470 C.2       2 UNK         0.4964 
     31 O          27.3743   25.6150    1.1557 O.2       2 UNK        -0.5047 
     32 CA         26.4331   23.4629    0.6798 C.3       2 UNK         0.0288 
     33 CB         26.3393   23.1649   -0.8287 C.3       2 UNK        -0.2113 
     34 N          27.7093   22.9872    1.1956 N.am      2 UNK        -0.4145 
     35 C          27.9834   21.7465    1.6155 C.2       1 UNK         0.5006 
     36 O          27.1786   20.8142    1.5674 O.2       1 UNK        -0.5103 
     37 C          28.8845   30.6770   -0.6352 C.2       5 UNK         0.5055 
     38 O          29.7529   31.5450   -0.5284 O.2       5 UNK        -0.5220 
     39 N          27.6515   30.7978   -0.1118 N.am      6 UNK        -0.4450 
     40 CA         27.0912   31.8901    0.6968 C.3       6 UNK         0.0367 
     41 CB         27.1105   33.2385   -0.0503 C.3       6 UNK        -0.1929 
     42 C          27.7322   31.9966    2.0890 C.2       6 UNK         0.5070 
     43 O          27.0362   31.8602    3.0949 O.2       6 UNK        -0.5237 
     44 N          29.0559   32.1749    2.1316 N.am      7 UNK        -0.4739 
     45 CA         29.8892   32.2046    3.3345 C.3       7 UNK         0.0276 
     46 CB         31.1506   33.0318    3.0270 C.3       7 UNK        -0.1927 
     47 C          30.2247   30.7823    3.8267 C.2       7 UNK         0.5013 
     48 O          31.3876   30.4891    4.1152 O.2       7 UNK        -0.5193 
     49 N          29.2035   29.9172    3.9097 N.am      8 UNK        -0.4253 
     50 CA         29.2717   28.4840    4.2214 C.3       8 UNK         0.0242 
     51 CB         27.9594   27.8177    3.7669 C.3       8 UNK        -0.2000 
     52 C          29.6251   28.1755    5.6941 C.2       8 UNK         0.4948 
     53 O          28.9263   27.4073    6.3567 O.2       8 UNK        -0.5275 
     54 N          30.7162   28.7811    6.1654 N.am      9 UNK        -0.4246 
     55 CA         31.3529   28.6067    7.4676 C.3       9 UNK         0.0261 
     56 CB         30.4936   29.1942    8.6045 C.3       9 UNK        -0.1959 
     57 C          32.7420   29.2547    7.4258 C.2       9 UNK         0.5033 
     58 O          33.7330   28.5962    7.7431 O.2       9 UNK        -0.5390 
     59 N          32.7950   30.5235    6.9900 N.am      10 UNK        -0.4215 
     60 CA         34.0272   31.2998    6.8052 C.3       10 UNK         0.0240 
     61 CB         33.6730   32.7889    6.6673 C.3       10 UNK        -0.1982 
     62 C          34.8897   30.8285    5.6176 C.2       10 UNK         0.4970 
     63 O          36.0767   31.1543    5.5773 O.2       10 UNK        -0.4916 
     64 N          34.2924   30.0653    4.6930 N.am      11 UNK        -0.4279 
     65 CA         34.9427   29.3569    3.5800 C.3       11 UNK         0.1003 
     66 C          36.1136   28.4039    3.9709 C.2       11 UNK         0.5709 
     67 N          36.1879   27.9118    5.2029 N.am      11 UNK        -0.7358 
     68 O          36.9672   28.1095    3.1377 O.2       11 UNK        -0.4999 
     69 C69        33.8865   28.6179    2.7118 C.3       12 UNK        -0.0954 
     70 S70        32.9161   27.3923    3.6630 S.3       12 UNK        -0.2268 
     71 C71        33.6564   25.8224    3.1017 C.3       12 UNK         0.0203 
     72 H72        31.3812   24.3901    4.4522 H         1 UNK         0.0888 
     73 H73        30.2908   25.3572    3.4439 H         1 UNK         0.0888 
     74 H74        29.8960   25.0492    5.1343 H         1 UNK         0.0888 
     75 H75        30.8110   23.0778    2.2143 H         1 UNK         0.3017 
     76 H76        29.2903   20.8014    3.0116 H         1 UNK         0.0873 
     77 H77        30.2524   21.3634    0.1642 H         1 UNK         0.0745 
     78 H78        29.8623   19.8261    0.8669 H         1 UNK         0.0745 
     79 H79        32.6674   21.3184   -0.5804 H         1 UNK         0.0705 
     80 H80        33.9814   21.4459    0.5598 H         1 UNK         0.0705 
     81 H81        33.9420   23.2697    2.3305 H         1 UNK         0.1334 
     82 H82        31.7601   26.8193    1.2841 H         1 UNK         0.1417 
     83 H83        31.2036   23.2222   -0.9623 H         1 UNK         0.1562 
     84 H84        29.4880   26.0926   -0.1668 H         1 UNK         0.0748 
     85 H85        29.9152   25.0935   -1.5241 H         1 UNK         0.0748 
     86 H86        31.2380   29.2826   -0.5112 H         1 UNK         0.0940 
     87 H87        30.0796   28.2754    0.3103 H         1 UNK         0.0940 
     88 H88        29.6122   29.6908   -2.3653 H         1 UNK         0.0703 
     89 H89        27.9414   27.7409   -0.9805 H         1 UNK         0.3081 
     90 H90        25.0800   28.3476   -2.9260 H         1 UNK         0.0719 
     91 H91        25.2898   26.0218   -3.7551 H         1 UNK         0.0809 
     92 H92        26.4207   27.0563   -4.6085 H         1 UNK         0.0809 
     93 H93        27.0037   25.9926   -3.3360 H         1 UNK         0.0809 
     94 H94        25.4879   26.1467   -1.3088 H         1 UNK         0.2990 
     95 H95        25.3977   27.3113    1.9030 H         1 UNK         0.0690 
     96 H96        23.1096   28.1950    1.4565 H         1 UNK         0.0788 
     97 H97        23.0318   26.6082    2.2013 H         1 UNK         0.0788 
     98 H98        22.7358   26.7880    0.4710 H         1 UNK         0.0788 
     99 H99        24.3287   24.9155    0.7027 H         1 UNK         0.2993 
    100 H100       25.6189   22.9661    1.2123 H         1 UNK         0.0949 
    101 H101       27.1326   23.6635   -1.3876 H         1 UNK         0.0767 
    102 H102       26.4157   22.0954   -1.0262 H         1 UNK         0.0767 
    103 H103       25.3862   23.4986   -1.2406 H         1 UNK         0.0767 
    104 H104       28.3967   23.7185    1.3286 H         1 UNK         0.3013 
    105 H105       27.0033   30.0251   -0.2418 H         1 UNK         0.3121 
    106 H106       26.0441   31.6261    0.8555 H         1 UNK         0.0774 
    107 H107       28.1232   33.5963   -0.2369 H         1 UNK         0.0815 
    108 H108       26.5997   34.0083    0.5294 H         1 UNK         0.0815 
    109 H109       26.6002   33.1643   -1.0105 H         1 UNK         0.0815 
    110 H110       29.5419   32.1814    1.2375 H         1 UNK         0.2987 
    111 H111       29.3420   32.7044    4.1366 H         1 UNK         0.0949 
    112 H112       31.7627   32.5609    2.2564 H         1 UNK         0.0806 
    113 H113       30.8946   34.0350    2.6860 H         1 UNK         0.0806 
    114 H114       31.7725   33.1442    3.9137 H         1 UNK         0.0806 
    115 H115       28.2821   30.2883    3.7070 H         1 UNK         0.3010 
    116 H116       30.0718   28.0571    3.6150 H         1 UNK         0.0829 
    117 H117       27.9920   26.7376    3.9175 H         1 UNK         0.0813 
    118 H118       27.1005   28.1997    4.3196 H         1 UNK         0.0813 
    119 H119       27.7780   27.9838    2.7047 H         1 UNK         0.0813 
    120 H120       31.2065   29.3759    5.4993 H         1 UNK         0.3038 
    121 H121       31.4861   27.5369    7.6411 H         1 UNK         0.0769 
    122 H122       30.2594   30.2459    8.4369 H         1 UNK         0.0811 
    123 H123       31.0118   29.1218    9.5616 H         1 UNK         0.0811 
    124 H124       29.5512   28.6570    8.7101 H         1 UNK         0.0811 
    125 H125       31.9316   30.9923    6.7570 H         1 UNK         0.3204 
    126 H126       34.6342   31.1803    7.7052 H         1 UNK         0.0748 
    127 H127       33.1413   33.1541    7.5463 H         1 UNK         0.0771 
    128 H128       34.5726   33.3968    6.5600 H         1 UNK         0.0771 
    129 H129       33.0488   32.9752    5.7948 H         1 UNK         0.0771 
    130 H130       33.2915   29.9308    4.7526 H         1 UNK         0.2980 
    131 H131       35.3896   30.1319    2.9552 H         1 UNK         0.0545 
    132 H132       36.9502   27.3001    5.4464 H         1 UNK         0.3459 
    133 H133       35.4816   28.1391    5.8870 H         1 UNK         0.3459 
    134 H134       33.1842   29.3427    2.2973 H         1 UNK         0.0616 
    135 H135       34.3521   28.1400    1.8479 H         1 UNK         0.0616 
    136 H136       34.7009   25.9801    2.8311 H         1 UNK         0.0634 
    137 H137       33.6679   25.1491    3.9597 H         1 UNK         0.0634 
@<TRIPOS>BOND
     1    1    2 1    
     2    1   72 1    
     3    1   73 1    
     4    1   74 1    
     5    2    3 2    
     6    2    4 am   BACKBONE|DICT|INTERRES
     7    4    5 1    
     8    4   75 1    
     9    5    6 1    
    10    5   35 1    
    11    5   76 1    
    12    6    7 1    
    13    6   77 1    
    14    6   78 1    
    15    7    8 1    
    16    8    9 1    
    17    8   79 1    
    18    8   80 1    
    19    9   10 ar   
    20    9   14 ar   
    21   10   11 ar   
    22   10   81 1    
    23   11   12 ar   
    24   11   71 1    
    25   12   13 ar   
    26   12   82 1    
    27   13   14 ar   
    28   13   15 1    
    29   14   83 1    
    30   15   16 1    
    31   15   84 1    
    32   15   85 1    
    33   16   17 1    
    34   17   18 1    
    35   17   86 1    
    36   17   87 1    
    37   18   19 1    
    38   18   37 1    
    39   18   88 1    
    40   19   20 am   BACKBONE|DICT|INTERRES
    41   19   89 1    
    42   20   21 2    
    43   20   22 1    
    44   22   23 1    
    45   22   24 1    
    46   22   90 1    
    47   23   91 1    
    48   23   92 1    
    49   23   93 1    
    50   24   25 am   BACKBONE|DICT|INTERRES
    51   24   94 1    
    52   25   26 2    
    53   25   27 1    
    54   27   28 1    
    55   27   29 1    
    56   27   95 1    
    57   28   96 1    
    58   28   97 1    
    59   28   98 1    
    60   29   30 am   BACKBONE|DICT|INTERRES
    61   29   99 1    
    62   30   31 2    
    63   30   32 1    
    64   32   33 1    
    65   32   34 1    
    66   32  100 1    
    67   33  101 1    
    68   33  102 1    
    69   33  103 1    
    70   34   35 am   BACKBONE|DICT|INTERRES
    71   34  104 1    
    72   35   36 2    
    73   37   38 2    
    74   37   39 am   BACKBONE|DICT|INTERRES
    75   39   40 1    
    76   39  105 1    
    77   40   41 1    
    78   40   42 1    
    79   40  106 1    
    80   41  107 1    
    81   41  108 1    
    82   41  109 1    
    83   42   43 2    
    84   42   44 am   BACKBONE|DICT|INTERRES
    85   44   45 1    
    86   44  110 1    
    87   45   46 1    
    88   45   47 1    
    89   45  111 1    
    90   46  112 1    
    91   46  113 1    
    92   46  114 1    
    93   47   48 2    
    94   47   49 am   BACKBONE|DICT|INTERRES
    95   49   50 1    
    96   49  115 1    
    97   50   51 1    
    98   50   52 1    
    99   50  116 1    
   100   51  117 1    
   101   51  118 1    
   102   51  119 1    
   103   52   53 2    
   104   52   54 am   BACKBONE|DICT|INTERRES
   105   54   55 1    
   106   54  120 1    
   107   55   56 1    
   108   55   57 1    
   109   55  121 1    
   110   56  122 1    
   111   56  123 1    
   112   56  124 1    
   113   57   58 2    
   114   57   59 am   BACKBONE|DICT|INTERRES
   115   59   60 1    
   116   59  125 1    
   117   60   61 1    
   118   60   62 1    
   119   60  126 1    
   120   61  127 1    
   121   61  128 1    
   122   61  129 1    
   123   62   63 2    
   124   62   64 am   BACKBONE|DICT|INTERRES
   125   64   65 1    
   126   64  130 1    
   127   65   66 1    
   128   65   69 1    
   129   65  131 1    
   130   66   67 am   BACKBONE|DICT|INTERRES
   131   66   68 2    
   132   67  132 1    
   133   67  133 1    
   134   69   70 1    
   135   69  134 1    
   136   69  135 1    
   137   70   71 1    
   138   71  136 1    
   139   71  137 1    
@<TRIPOS>SUBSTRUCTURE
     1 UNK         1 GROUP             0       ****    0 ROOT    
