@<TRIPOS>MOLECULE
3R136
137   139    1
SMALL
USER_CHARGES


@<TRIPOS>ATOM
      1 CA         32.7627   20.2295    0.3149 C.3       0 UNK        -0.1979 
      2 C          32.6469   21.5120   -0.4957 C.2       0 UNK         0.4864 
      3 O          33.6653   22.1189   -0.8302 O.2       0 UNK        -0.5359 
      4 N          31.4166   21.9256   -0.8129 N.am      1 UNK        -0.4318 
      5 CA         31.0884   23.1168   -1.5926 C.3       1 UNK         0.0824 
      6 C6         31.2704   24.4358   -0.7867 C.3       12 UNK        -0.0944 
      7 S7         30.0647   24.7109    0.5593 S.3       12 UNK        -0.2672 
      8 C8         30.8760   23.8785    1.9591 C.3       12 UNK         0.0333 
      9 C9         30.2245   24.2785    3.2727 C.ar      12 UNK        -0.0807 
     10 C10        30.8722   25.1644    4.1360 C.ar      12 UNK        -0.0894 
     11 C11        30.2587   25.5812    5.3204 C.ar      12 UNK        -0.0804 
     12 C12        28.9953   25.0845    5.6558 C.ar      12 UNK        -0.0824 
     13 C13        28.3286   24.2127    4.7873 C.ar      12 UNK        -0.0762 
     14 C14        28.9561   23.7978    3.6082 C.ar      12 UNK        -0.0782 
     15 C15        26.9069   23.7607    5.0835 C.3       12 UNK         0.0230 
     16 S16        25.7102   24.5932    3.9864 S.3       12 UNK        -0.2608 
     17 C17        25.6316   26.2763    4.6947 C.3       12 UNK        -0.0989 
     18 CA         26.6581   27.2632    4.0813 C.3       5 UNK         0.0716 
     19 N          26.5771   27.3404    2.6250 N.am      5 UNK        -0.4135 
     20 C          27.5248   27.8666    1.8403 C.2       4 UNK         0.5031 
     21 O          28.5407   28.4089    2.2745 O.2       4 UNK        -0.5229 
     22 CA         27.3165   27.7264    0.3194 C.3       4 UNK         0.0329 
     23 CB         28.5163   28.2527   -0.4924 C.3       4 UNK        -0.2001 
     24 N          27.0645   26.3340   -0.0627 N.am      4 UNK        -0.4303 
     25 C          25.8878   25.7007    0.0334 C.2       3 UNK         0.5044 
     26 O          24.8699   26.2401    0.4729 O.2       3 UNK        -0.5152 
     27 CA         25.8503   24.2200   -0.4006 C.3       3 UNK         0.0319 
     28 CB         24.4240   23.7370   -0.7376 C.3       3 UNK        -0.2001 
     29 N          26.7754   23.8903   -1.4938 N.am      3 UNK        -0.4354 
     30 C          26.8272   24.4262   -2.7229 C.2       2 UNK         0.4964 
     31 O          26.0723   25.3190   -3.1119 O.2       2 UNK        -0.5047 
     32 CA         27.9187   23.8759   -3.6693 C.3       2 UNK         0.0288 
     33 CB         28.0074   24.6611   -4.9923 C.3       2 UNK        -0.2113 
     34 N          29.2499   23.8464   -3.0503 N.am      2 UNK        -0.4145 
     35 C          29.6697   22.9353   -2.1624 C.2       1 UNK         0.5006 
     36 O          28.9629   22.0020   -1.7651 O.2       1 UNK        -0.5103 
     37 C          26.5311   28.6563    4.7235 C.2       5 UNK         0.5055 
     38 O          25.6157   29.4074    4.3780 O.2       5 UNK        -0.5220 
     39 N          27.4379   28.9416    5.6680 N.am      6 UNK        -0.4450 
     40 CA         27.5698   30.1758    6.4492 C.3       6 UNK         0.0367 
     41 CB         26.3654   30.3508    7.3994 C.3       6 UNK        -0.1929 
     42 C          27.8441   31.4235    5.5853 C.2       6 UNK         0.5070 
     43 O          27.3454   32.5047    5.9052 O.2       6 UNK        -0.5237 
     44 N          28.6306   31.2690    4.5119 N.am      7 UNK        -0.4739 
     45 CA         28.9629   32.3417    3.5778 C.3       7 UNK         0.0276 
     46 CB         27.8395   32.4716    2.5311 C.3       7 UNK        -0.1927 
     47 C          30.3050   32.0698    2.8888 C.2       7 UNK         0.5013 
     48 O          30.7051   30.9119    2.7539 O.2       7 UNK        -0.5193 
     49 N          30.9303   33.1570    2.4126 N.am      8 UNK        -0.4253 
     50 CA         32.1045   33.2061    1.5319 C.3       8 UNK         0.0242 
     51 CB         31.7126   32.6841    0.1290 C.3       8 UNK        -0.2000 
     52 C          33.3602   32.5068    2.0944 C.2       8 UNK         0.4948 
     53 O          33.4411   32.2104    3.2894 O.2       8 UNK        -0.5275 
     54 N          34.3304   32.2453    1.2072 N.am      9 UNK        -0.4246 
     55 CA         35.5824   31.5366    1.4948 C.3       9 UNK         0.0261 
     56 CB         36.5195   31.6666    0.2821 C.3       9 UNK        -0.1959 
     57 C          35.3952   30.0552    1.8785 C.2       9 UNK         0.5033 
     58 O          36.3422   29.4448    2.3763 O.2       9 UNK        -0.5390 
     59 N          34.1917   29.5057    1.6545 N.am      10 UNK        -0.4215 
     60 CA         33.7830   28.1712    2.0912 C.3       10 UNK         0.0240 
     61 CB         32.4168   27.8219    1.4756 C.3       10 UNK        -0.1982 
     62 C          33.7385   28.0359    3.6234 C.2       10 UNK         0.4970 
     63 O          34.0728   26.9626    4.1273 O.2       10 UNK        -0.4916 
     64 N          33.3488   29.1106    4.3253 N.am      11 UNK        -0.4279 
     65 CA         33.2695   29.1569    5.7952 C.3       11 UNK         0.1003 
     66 C          34.2125   30.2166    6.4244 C.2       11 UNK         0.5709 
     67 N          34.6144   31.2657    5.7163 N.am      11 UNK        -0.7358 
     68 O          34.6030   30.0755    7.5810 O.2       11 UNK        -0.4999 
     69 C69        31.8175   29.3388    6.3183 C.3       12 UNK        -0.0954 
     70 S70        30.5903   28.2755    5.4938 S.3       12 UNK        -0.2268 
     71 C71        30.9372   26.6314    6.1833 C.3       12 UNK         0.0203 
     72 H72        33.3381   19.4869   -0.2372 H         1 UNK         0.0888 
     73 H73        33.2738   20.4266    1.2569 H         1 UNK         0.0888 
     74 H74        31.7862   19.8020    0.5423 H         1 UNK         0.0888 
     75 H75        30.6016   21.3730   -0.5731 H         1 UNK         0.3017 
     76 H76        31.7638   23.1424   -2.4507 H         1 UNK         0.0873 
     77 H77        32.2805   24.4932   -0.3788 H         1 UNK         0.0745 
     78 H78        31.1958   25.2893   -1.4622 H         1 UNK         0.0745 
     79 H79        30.8089   22.7977    1.8311 H         1 UNK         0.0705 
     80 H80        31.9384   24.1271    1.9694 H         1 UNK         0.0705 
     81 H81        31.8411   25.5627    3.8702 H         1 UNK         0.1334 
     82 H82        28.5086   25.4208    6.5611 H         1 UNK         0.1417 
     83 H83        28.4376   23.1357    2.9280 H         1 UNK         0.1562 
     84 H84        26.6431   23.9399    6.1269 H         1 UNK         0.0748 
     85 H85        26.8342   22.6829    4.9310 H         1 UNK         0.0748 
     86 H86        25.7643   26.2096    5.7763 H         1 UNK         0.0940 
     87 H87        24.6165   26.6487    4.5423 H         1 UNK         0.0940 
     88 H88        27.6577   26.8918    4.3020 H         1 UNK         0.0703 
     89 H89        25.7663   26.9202    2.1852 H         1 UNK         0.3081 
     90 H90        26.4456   28.3302    0.0556 H         1 UNK         0.0719 
     91 H91        29.4306   27.7043   -0.2609 H         1 UNK         0.0809 
     92 H92        28.3372   28.1726   -1.5647 H         1 UNK         0.0809 
     93 H93        28.7051   29.3045   -0.2725 H         1 UNK         0.0809 
     94 H94        27.8686   25.8009   -0.3631 H         1 UNK         0.2990 
     95 H95        26.1933   23.6513    0.4652 H         1 UNK         0.0690 
     96 H96        24.4166   22.6822   -1.0119 H         1 UNK         0.0788 
     97 H97        23.9916   24.3024   -1.5638 H         1 UNK         0.0788 
     98 H98        23.7582   23.8511    0.1189 H         1 UNK         0.0788 
     99 H99        27.4506   23.1572   -1.2942 H         1 UNK         0.2993 
    100 H100       27.6287   22.8516   -3.9150 H         1 UNK         0.0949 
    101 H101       27.0520   24.6519   -5.5191 H         1 UNK         0.0767 
    102 H102       28.2785   25.7044   -4.8251 H         1 UNK         0.0767 
    103 H103       28.7469   24.2249   -5.6643 H         1 UNK         0.0767 
    104 H104       29.8727   24.6007   -3.3019 H         1 UNK         0.3013 
    105 H105       28.1832   28.2730    5.8154 H         1 UNK         0.3121 
    106 H106       28.4573   30.0464    7.0705 H         1 UNK         0.0774 
    107 H107       25.4433   30.5478    6.8517 H         1 UNK         0.0815 
    108 H108       26.5228   31.1877    8.0809 H         1 UNK         0.0815 
    109 H109       26.2096   29.4626    8.0115 H         1 UNK         0.0815 
    110 H110       29.0449   30.3680    4.2965 H         1 UNK         0.2987 
    111 H111       29.0546   33.2804    4.1293 H         1 UNK         0.0949 
    112 H112       28.0595   33.2580    1.8081 H         1 UNK         0.0806 
    113 H113       27.7066   31.5424    1.9746 H         1 UNK         0.0806 
    114 H114       26.8860   32.7197    2.9977 H         1 UNK         0.0806 
    115 H115       30.5262   34.0580    2.6266 H         1 UNK         0.3010 
    116 H116       32.3647   34.2614    1.4371 H         1 UNK         0.0829 
    117 H117       31.5468   31.6057    0.1304 H         1 UNK         0.0813 
    118 H118       30.7945   33.1553   -0.2227 H         1 UNK         0.0813 
    119 H119       32.4770   32.9021   -0.6172 H         1 UNK         0.0813 
    120 H120       34.1907   32.5326    0.2490 H         1 UNK         0.3038 
    121 H121       36.0547   32.0292    2.3475 H         1 UNK         0.0769 
    122 H122       37.4783   31.1831    0.4753 H         1 UNK         0.0811 
    123 H123       36.0948   31.2018   -0.6086 H         1 UNK         0.0811 
    124 H124       36.7288   32.7112    0.0508 H         1 UNK         0.0811 
    125 H125       33.4743   30.0863    1.2464 H         1 UNK         0.3204 
    126 H126       34.5196   27.4579    1.7157 H         1 UNK         0.0748 
    127 H127       32.1142   26.8104    1.7476 H         1 UNK         0.0771 
    128 H128       32.4434   27.8665    0.3869 H         1 UNK         0.0771 
    129 H129       31.6300   28.4946    1.8218 H         1 UNK         0.0771 
    130 H130       33.0802   29.9551    3.8369 H         1 UNK         0.2980 
    131 H131       33.6243   28.2068    6.1970 H         1 UNK         0.0545 
    132 H132       35.2347   31.9308    6.1486 H         1 UNK         0.3459 
    133 H133       34.2367   31.4648    4.7939 H         1 UNK         0.3459 
    134 H134       31.7701   29.1585    7.3937 H         1 UNK         0.0616 
    135 H135       31.4906   30.3693    6.1656 H         1 UNK         0.0616 
    136 H136       30.5864   26.5816    7.2150 H         1 UNK         0.0634 
    137 H137       32.0127   26.4520    6.2030 H         1 UNK         0.0634 
@<TRIPOS>BOND
     1    1    2 1    
     2    1   72 1    
     3    1   73 1    
     4    1   74 1    
     5    2    3 2    
     6    2    4 am   BACKBONE|DICT|INTERRES
     7    4    5 1    
     8    4   75 1    
     9    5    6 1    
    10    5   35 1    
    11    5   76 1    
    12    6    7 1    
    13    6   77 1    
    14    6   78 1    
    15    7    8 1    
    16    8    9 1    
    17    8   79 1    
    18    8   80 1    
    19    9   10 ar   
    20    9   14 ar   
    21   10   11 ar   
    22   10   81 1    
    23   11   12 ar   
    24   11   71 1    
    25   12   13 ar   
    26   12   82 1    
    27   13   14 ar   
    28   13   15 1    
    29   14   83 1    
    30   15   16 1    
    31   15   84 1    
    32   15   85 1    
    33   16   17 1    
    34   17   18 1    
    35   17   86 1    
    36   17   87 1    
    37   18   19 1    
    38   18   37 1    
    39   18   88 1    
    40   19   20 am   BACKBONE|DICT|INTERRES
    41   19   89 1    
    42   20   21 2    
    43   20   22 1    
    44   22   23 1    
    45   22   24 1    
    46   22   90 1    
    47   23   91 1    
    48   23   92 1    
    49   23   93 1    
    50   24   25 am   BACKBONE|DICT|INTERRES
    51   24   94 1    
    52   25   26 2    
    53   25   27 1    
    54   27   28 1    
    55   27   29 1    
    56   27   95 1    
    57   28   96 1    
    58   28   97 1    
    59   28   98 1    
    60   29   30 am   BACKBONE|DICT|INTERRES
    61   29   99 1    
    62   30   31 2    
    63   30   32 1    
    64   32   33 1    
    65   32   34 1    
    66   32  100 1    
    67   33  101 1    
    68   33  102 1    
    69   33  103 1    
    70   34   35 am   BACKBONE|DICT|INTERRES
    71   34  104 1    
    72   35   36 2    
    73   37   38 2    
    74   37   39 am   BACKBONE|DICT|INTERRES
    75   39   40 1    
    76   39  105 1    
    77   40   41 1    
    78   40   42 1    
    79   40  106 1    
    80   41  107 1    
    81   41  108 1    
    82   41  109 1    
    83   42   43 2    
    84   42   44 am   BACKBONE|DICT|INTERRES
    85   44   45 1    
    86   44  110 1    
    87   45   46 1    
    88   45   47 1    
    89   45  111 1    
    90   46  112 1    
    91   46  113 1    
    92   46  114 1    
    93   47   48 2    
    94   47   49 am   BACKBONE|DICT|INTERRES
    95   49   50 1    
    96   49  115 1    
    97   50   51 1    
    98   50   52 1    
    99   50  116 1    
   100   51  117 1    
   101   51  118 1    
   102   51  119 1    
   103   52   53 2    
   104   52   54 am   BACKBONE|DICT|INTERRES
   105   54   55 1    
   106   54  120 1    
   107   55   56 1    
   108   55   57 1    
   109   55  121 1    
   110   56  122 1    
   111   56  123 1    
   112   56  124 1    
   113   57   58 2    
   114   57   59 am   BACKBONE|DICT|INTERRES
   115   59   60 1    
   116   59  125 1    
   117   60   61 1    
   118   60   62 1    
   119   60  126 1    
   120   61  127 1    
   121   61  128 1    
   122   61  129 1    
   123   62   63 2    
   124   62   64 am   BACKBONE|DICT|INTERRES
   125   64   65 1    
   126   64  130 1    
   127   65   66 1    
   128   65   69 1    
   129   65  131 1    
   130   66   67 am   BACKBONE|DICT|INTERRES
   131   66   68 2    
   132   67  132 1    
   133   67  133 1    
   134   69   70 1    
   135   69  134 1    
   136   69  135 1    
   137   70   71 1    
   138   71  136 1    
   139   71  137 1    
@<TRIPOS>SUBSTRUCTURE
     1 UNK         1 GROUP             0       ****    0 ROOT    
