@<TRIPOS>MOLECULE
3R136
137   139    1
SMALL
USER_CHARGES


@<TRIPOS>ATOM
      1 CA         25.3585   22.6791    3.9510 C.3       0 UNK        -0.1979 
      2 C          26.0830   23.0463    2.6653 C.2       0 UNK         0.4864 
      3 O          25.7072   24.0171    2.0090 O.2       0 UNK        -0.5359 
      4 N          27.1278   22.2881    2.3058 N.am      1 UNK        -0.4318 
      5 CA         27.9528   22.4937    1.1078 C.3       1 UNK         0.0824 
      6 C6         28.9406   21.3214    0.8840 C.3       12 UNK        -0.0944 
      7 S7         30.0921   21.0385    2.2796 S.3       12 UNK        -0.2672 
      8 C8         31.7113   20.9709    1.4492 C.3       12 UNK         0.0333 
      9 C9         32.1588   22.3210    0.9029 C.ar      12 UNK        -0.0807 
     10 C10        32.7937   23.2494    1.7357 C.ar      12 UNK        -0.0894 
     11 C11        33.2735   24.4583    1.2176 C.ar      12 UNK        -0.0804 
     12 C12        33.0991   24.7393   -0.1408 C.ar      12 UNK        -0.0824 
     13 C13        32.4462   23.8297   -0.9770 C.ar      12 UNK        -0.0762 
     14 C14        31.9881   22.6194   -0.4521 C.ar      12 UNK        -0.0782 
     15 C15        32.2479   24.1416   -2.4523 C.3       12 UNK         0.0230 
     16 S16        30.6034   24.8531   -2.7658 S.3       12 UNK        -0.2608 
     17 C17        30.7988   26.4944   -1.9991 C.3       12 UNK        -0.0989 
     18 CA         29.5914   27.4166   -2.2809 C.3       5 UNK         0.0716 
     19 N          28.3731   26.9348   -1.6239 N.am      5 UNK        -0.4135 
     20 C          27.1308   27.3142   -1.9537 C.2       4 UNK         0.5031 
     21 O          26.8738   28.1493   -2.8220 O.2       4 UNK        -0.5229 
     22 CA         25.9770   26.6420   -1.1931 C.3       4 UNK         0.0329 
     23 CB         25.7307   25.2123   -1.7039 C.3       4 UNK        -0.2001 
     24 N          26.2446   26.6194    0.2436 N.am      4 UNK        -0.4303 
     25 C          25.9896   27.6444    1.0681 C.2       3 UNK         0.5044 
     26 O          25.3581   28.6465    0.7309 O.2       3 UNK        -0.5152 
     27 CA         26.5151   27.5483    2.5120 C.3       3 UNK         0.0319 
     28 CB         25.3779   27.2237    3.4940 C.3       3 UNK        -0.2001 
     29 N          27.5930   26.5697    2.6802 N.am      3 UNK        -0.4354 
     30 C          28.8606   26.7499    2.2792 C.2       2 UNK         0.4964 
     31 O          29.2713   27.7744    1.7431 O.2       2 UNK        -0.5047 
     32 CA         29.8273   25.5718    2.4705 C.3       2 UNK         0.0288 
     33 CB         30.4514   25.6093    3.8732 C.3       2 UNK        -0.2113 
     34 N          29.1976   24.2706    2.2522 N.am      2 UNK        -0.4145 
     35 C          28.6523   23.8697    1.0950 C.2       1 UNK         0.5006 
     36 O          28.6186   24.5664    0.0795 O.2       1 UNK        -0.5103 
     37 C          29.9471   28.8727   -1.9210 C.2       5 UNK         0.5055 
     38 O          30.4192   29.6016   -2.7958 O.2       5 UNK        -0.5220 
     39 N          29.7615   29.2657   -0.6563 N.am      6 UNK        -0.4450 
     40 CA         30.1670   30.5600   -0.1118 C.3       6 UNK         0.0367 
     41 CB         31.5667   30.4117    0.5209 C.3       6 UNK        -0.1929 
     42 C          29.1256   31.0434    0.9072 C.2       6 UNK         0.5070 
     43 O          28.0706   30.4272    1.0646 O.2       6 UNK        -0.5237 
     44 N          29.4350   32.1373    1.6125 N.am      7 UNK        -0.4739 
     45 CA         28.6206   32.6785    2.7039 C.3       7 UNK         0.0276 
     46 CB         28.9241   34.1803    2.8619 C.3       7 UNK        -0.1927 
     47 C          28.8162   31.8836    4.0124 C.2       7 UNK         0.5013 
     48 O          29.2609   32.4523    5.0113 O.2       7 UNK        -0.5193 
     49 N          28.4983   30.5801    3.9693 N.am      8 UNK        -0.4253 
     50 CA         28.4872   29.6034    5.0677 C.3       8 UNK         0.0242 
     51 CB         27.2433   29.8219    5.9556 C.3       8 UNK        -0.2000 
     52 C          29.8064   29.5707    5.8581 C.2       8 UNK         0.4948 
     53 O          30.7629   28.9338    5.4140 O.2       8 UNK        -0.5275 
     54 N          29.8561   30.2998    6.9830 N.am      9 UNK        -0.4246 
     55 CA         31.0257   30.4985    7.8484 C.3       9 UNK         0.0261 
     56 CB         30.6206   31.3847    9.0376 C.3       9 UNK        -0.1959 
     57 C          32.2675   31.0792    7.1407 C.2       9 UNK         0.5033 
     58 O          33.3668   30.9744    7.6863 O.2       9 UNK        -0.5390 
     59 N          32.0874   31.6378    5.9341 N.am      10 UNK        -0.4215 
     60 CA         33.1506   32.0058    4.9964 C.3       10 UNK         0.0240 
     61 CB         32.5248   32.6514    3.7521 C.3       10 UNK        -0.1982 
     62 C          34.0726   30.8382    4.5866 C.2       10 UNK         0.4970 
     63 O          35.2308   31.1025    4.2596 O.2       10 UNK        -0.4916 
     64 N          33.5816   29.5895    4.6322 N.am      11 UNK        -0.4279 
     65 CA         34.4157   28.3858    4.4817 C.3       11 UNK         0.1003 
     66 C          34.0178   27.1923    5.3949 C.2       11 UNK         0.5709 
     67 N          32.8550   27.1840    6.0347 N.am      11 UNK        -0.7358 
     68 O          34.8053   26.2631    5.5573 O.2       11 UNK        -0.4999 
     69 C69        34.6755   27.9989    2.9978 C.3       12 UNK        -0.0954 
     70 S70        33.3230   27.0987    2.1583 S.3       12 UNK        -0.2268 
     71 C71        34.0492   25.4254    2.1023 C.3       12 UNK         0.0203 
     72 H72        25.8083   21.8157    4.4407 H         1 UNK         0.0888 
     73 H73        25.3835   23.5166    4.6476 H         1 UNK         0.0888 
     74 H74        24.3160   22.4442    3.7380 H         1 UNK         0.0888 
     75 H75        27.3995   21.5072    2.8868 H         1 UNK         0.3017 
     76 H76        27.2652   22.4988    0.2590 H         1 UNK         0.0873 
     77 H77        28.3766   20.3994    0.7343 H         1 UNK         0.0745 
     78 H78        29.4917   21.4686   -0.0442 H         1 UNK         0.0745 
     79 H79        31.6758   20.2261    0.6525 H         1 UNK         0.0705 
     80 H80        32.4520   20.6089    2.1638 H         1 UNK         0.0705 
     81 H81        32.9390   23.0151    2.7815 H         1 UNK         0.1334 
     82 H82        33.4761   25.6685   -0.5460 H         1 UNK         0.1417 
     83 H83        31.5060   21.9068   -1.1069 H         1 UNK         0.1562 
     84 H84        32.3542   23.2282   -3.0396 H         1 UNK         0.0748 
     85 H85        33.0203   24.8237   -2.8110 H         1 UNK         0.0748 
     86 H86        31.7212   26.9333   -2.3859 H         1 UNK         0.0940 
     87 H87        30.9388   26.3738   -0.9228 H         1 UNK         0.0940 
     88 H88        29.4077   27.4021   -3.3578 H         1 UNK         0.0703 
     89 H89        28.4940   26.1871   -0.9453 H         1 UNK         0.3081 
     90 H90        25.0683   27.2187   -1.3795 H         1 UNK         0.0719 
     91 H91        26.6112   24.5787   -1.5987 H         1 UNK         0.0809 
     92 H92        24.9115   24.7358   -1.1648 H         1 UNK         0.0809 
     93 H93        25.4632   25.2204   -2.7612 H         1 UNK         0.0809 
     94 H94        26.7309   25.8107    0.6093 H         1 UNK         0.2990 
     95 H95        26.9042   28.5347    2.7654 H         1 UNK         0.0690 
     96 H96        25.7331   27.2119    4.5245 H         1 UNK         0.0788 
     97 H97        24.9244   26.2550    3.2825 H         1 UNK         0.0788 
     98 H98        24.5869   27.9725    3.4334 H         1 UNK         0.0788 
     99 H99        27.3293   25.6723    3.0608 H         1 UNK         0.2993 
    100 H100       30.6244   25.6801    1.7320 H         1 UNK         0.0949 
    101 H101       30.9233   26.5752    4.0547 H         1 UNK         0.0767 
    102 H102       29.7082   25.4575    4.6566 H         1 UNK         0.0767 
    103 H103       31.2249   24.8494    3.9844 H         1 UNK         0.0767 
    104 H104       29.1924   23.6247    3.0282 H         1 UNK         0.3013 
    105 H105       29.3424   28.6384    0.0282 H         1 UNK         0.3121 
    106 H106       30.2060   31.3055   -0.9086 H         1 UNK         0.0774 
    107 H107       31.9744   31.3746    0.8279 H         1 UNK         0.0815 
    108 H108       31.5419   29.7654    1.4004 H         1 UNK         0.0815 
    109 H109       32.2775   29.9800   -0.1839 H         1 UNK         0.0815 
    110 H110       30.3166   32.5970    1.4373 H         1 UNK         0.2987 
    111 H111       27.5648   32.5891    2.4368 H         1 UNK         0.0949 
    112 H112       29.9689   34.3629    3.1107 H         1 UNK         0.0806 
    113 H113       28.6978   34.7278    1.9469 H         1 UNK         0.0806 
    114 H114       28.3191   34.6193    3.6564 H         1 UNK         0.0806 
    115 H115       28.2337   30.2190    3.0565 H         1 UNK         0.3010 
    116 H116       28.3964   28.6174    4.6128 H         1 UNK         0.0829 
    117 H117       26.3278   29.6656    5.3848 H         1 UNK         0.0813 
    118 H118       27.2232   29.1174    6.7884 H         1 UNK         0.0813 
    119 H119       27.1991   30.8299    6.3693 H         1 UNK         0.0813 
    120 H120       29.0316   30.8307    7.2242 H         1 UNK         0.3038 
    121 H121       31.3118   29.5171    8.2321 H         1 UNK         0.0769 
    122 H122       30.2949   32.3729    8.7101 H         1 UNK         0.0811 
    123 H123       31.4578   31.5279    9.7225 H         1 UNK         0.0811 
    124 H124       29.8102   30.9351    9.6116 H         1 UNK         0.0811 
    125 H125       31.1332   31.7409    5.6034 H         1 UNK         0.3204 
    126 H126       33.7756   32.7513    5.4920 H         1 UNK         0.0748 
    127 H127       33.2902   32.9410    3.0306 H         1 UNK         0.0771 
    128 H128       31.8420   31.9659    3.2507 H         1 UNK         0.0771 
    129 H129       31.9719   33.5523    4.0160 H         1 UNK         0.0771 
    130 H130       32.6124   29.4365    4.8902 H         1 UNK         0.2980 
    131 H131       35.3939   28.6556    4.8857 H         1 UNK         0.0545 
    132 H132       32.1372   27.8811    5.8563 H         1 UNK         0.3459 
    133 H133       32.6447   26.4024    6.6330 H         1 UNK         0.3459 
    134 H134       35.5875   27.4031    2.9410 H         1 UNK         0.0616 
    135 H135       34.8900   28.8938    2.4121 H         1 UNK         0.0616 
    136 H136       34.1221   25.0413    3.1206 H         1 UNK         0.0634 
    137 H137       35.0687   25.4868    1.7197 H         1 UNK         0.0634 
@<TRIPOS>BOND
     1    1    2 1    
     2    1   72 1    
     3    1   73 1    
     4    1   74 1    
     5    2    3 2    
     6    2    4 am   BACKBONE|DICT|INTERRES
     7    4    5 1    
     8    4   75 1    
     9    5    6 1    
    10    5   35 1    
    11    5   76 1    
    12    6    7 1    
    13    6   77 1    
    14    6   78 1    
    15    7    8 1    
    16    8    9 1    
    17    8   79 1    
    18    8   80 1    
    19    9   10 ar   
    20    9   14 ar   
    21   10   11 ar   
    22   10   81 1    
    23   11   12 ar   
    24   11   71 1    
    25   12   13 ar   
    26   12   82 1    
    27   13   14 ar   
    28   13   15 1    
    29   14   83 1    
    30   15   16 1    
    31   15   84 1    
    32   15   85 1    
    33   16   17 1    
    34   17   18 1    
    35   17   86 1    
    36   17   87 1    
    37   18   19 1    
    38   18   37 1    
    39   18   88 1    
    40   19   20 am   BACKBONE|DICT|INTERRES
    41   19   89 1    
    42   20   21 2    
    43   20   22 1    
    44   22   23 1    
    45   22   24 1    
    46   22   90 1    
    47   23   91 1    
    48   23   92 1    
    49   23   93 1    
    50   24   25 am   BACKBONE|DICT|INTERRES
    51   24   94 1    
    52   25   26 2    
    53   25   27 1    
    54   27   28 1    
    55   27   29 1    
    56   27   95 1    
    57   28   96 1    
    58   28   97 1    
    59   28   98 1    
    60   29   30 am   BACKBONE|DICT|INTERRES
    61   29   99 1    
    62   30   31 2    
    63   30   32 1    
    64   32   33 1    
    65   32   34 1    
    66   32  100 1    
    67   33  101 1    
    68   33  102 1    
    69   33  103 1    
    70   34   35 am   BACKBONE|DICT|INTERRES
    71   34  104 1    
    72   35   36 2    
    73   37   38 2    
    74   37   39 am   BACKBONE|DICT|INTERRES
    75   39   40 1    
    76   39  105 1    
    77   40   41 1    
    78   40   42 1    
    79   40  106 1    
    80   41  107 1    
    81   41  108 1    
    82   41  109 1    
    83   42   43 2    
    84   42   44 am   BACKBONE|DICT|INTERRES
    85   44   45 1    
    86   44  110 1    
    87   45   46 1    
    88   45   47 1    
    89   45  111 1    
    90   46  112 1    
    91   46  113 1    
    92   46  114 1    
    93   47   48 2    
    94   47   49 am   BACKBONE|DICT|INTERRES
    95   49   50 1    
    96   49  115 1    
    97   50   51 1    
    98   50   52 1    
    99   50  116 1    
   100   51  117 1    
   101   51  118 1    
   102   51  119 1    
   103   52   53 2    
   104   52   54 am   BACKBONE|DICT|INTERRES
   105   54   55 1    
   106   54  120 1    
   107   55   56 1    
   108   55   57 1    
   109   55  121 1    
   110   56  122 1    
   111   56  123 1    
   112   56  124 1    
   113   57   58 2    
   114   57   59 am   BACKBONE|DICT|INTERRES
   115   59   60 1    
   116   59  125 1    
   117   60   61 1    
   118   60   62 1    
   119   60  126 1    
   120   61  127 1    
   121   61  128 1    
   122   61  129 1    
   123   62   63 2    
   124   62   64 am   BACKBONE|DICT|INTERRES
   125   64   65 1    
   126   64  130 1    
   127   65   66 1    
   128   65   69 1    
   129   65  131 1    
   130   66   67 am   BACKBONE|DICT|INTERRES
   131   66   68 2    
   132   67  132 1    
   133   67  133 1    
   134   69   70 1    
   135   69  134 1    
   136   69  135 1    
   137   70   71 1    
   138   71  136 1    
   139   71  137 1    
@<TRIPOS>SUBSTRUCTURE
     1 UNK         1 GROUP             0       ****    0 ROOT    
