@<TRIPOS>MOLECULE
3R136
137   139    1
SMALL
USER_CHARGES


@<TRIPOS>ATOM
      1 CA         25.1330   26.2005    5.0805 C.3       0 UNK        -0.1979 
      2 C          25.7644   24.8200    4.9729 C.2       0 UNK         0.4864 
      3 O          25.5219   23.9757    5.8368 O.2       0 UNK        -0.5359 
      4 N          26.5599   24.5796    3.9239 N.am      1 UNK        -0.4318 
      5 CA         27.2454   23.3063    3.6769 C.3       1 UNK         0.0824 
      6 C6         28.6041   23.1849    4.4225 C.3       12 UNK        -0.0944 
      7 S7         29.8295   24.4629    3.9809 S.3       12 UNK        -0.2672 
      8 C8         31.2456   23.4490    3.4425 C.3       12 UNK         0.0333 
      9 C9         32.0773   24.2123    2.4279 C.ar      12 UNK        -0.0807 
     10 C10        33.2565   24.8686    2.7946 C.ar      12 UNK        -0.0894 
     11 C11        33.9645   25.6281    1.8549 C.ar      12 UNK        -0.0804 
     12 C12        33.4766   25.7337    0.5471 C.ar      12 UNK        -0.0824 
     13 C13        32.2769   25.1143    0.1880 C.ar      12 UNK        -0.0762 
     14 C14        31.6142   24.3096    1.1163 C.ar      12 UNK        -0.0782 
     15 C15        31.6187   25.4042   -1.1534 C.3       12 UNK         0.0230 
     16 S16        30.6233   26.9406   -1.0938 S.3       12 UNK        -0.2608 
     17 C17        29.7528   26.7692    0.5045 C.3       12 UNK        -0.0989 
     18 CA         28.6717   27.8381    0.7653 C.3       5 UNK         0.0716 
     19 N          27.6060   27.7576   -0.2278 N.am      5 UNK        -0.4135 
     20 C          27.0262   28.8061   -0.8254 C.2       4 UNK         0.5031 
     21 O          27.2822   29.9786   -0.5446 O.2       4 UNK        -0.5229 
     22 CA         26.0214   28.4962   -1.9518 C.3       4 UNK         0.0329 
     23 CB         25.9636   29.6061   -3.0186 C.3       4 UNK        -0.2001 
     24 N          26.3727   27.2283   -2.5911 N.am      4 UNK        -0.4303 
     25 C          25.5407   26.2004   -2.7793 C.2       3 UNK         0.5044 
     26 O          24.3206   26.2610   -2.6159 O.2       3 UNK        -0.5152 
     27 CA         26.1774   24.8473   -3.1566 C.3       3 UNK         0.0319 
     28 CB         27.6831   24.9193   -3.5082 C.3       3 UNK        -0.2001 
     29 N          25.9434   23.8592   -2.0953 N.am      3 UNK        -0.4354 
     30 C          26.2910   23.9710   -0.8026 C.2       2 UNK         0.4964 
     31 O          26.9334   24.9199   -0.3467 O.2       2 UNK        -0.5047 
     32 CA         25.7775   22.8538    0.1252 C.3       2 UNK         0.0288 
     33 CB         26.2355   21.4506   -0.3338 C.3       2 UNK        -0.2113 
     34 N          26.0881   23.0863    1.5436 N.am      2 UNK        -0.4145 
     35 C          27.2754   22.9983    2.1657 C.2       1 UNK         0.5006 
     36 O          28.3272   22.6700    1.6131 O.2       1 UNK        -0.5103 
     37 C          28.0926   27.6295    2.1754 C.2       5 UNK         0.5055 
     38 O          27.0800   26.9415    2.3336 O.2       5 UNK        -0.5220 
     39 N          28.7857   28.1772    3.1800 N.am      6 UNK        -0.4450 
     40 CA         28.4749   28.0121    4.6025 C.3       6 UNK         0.0367 
     41 CB         27.4987   29.1123    5.0617 C.3       6 UNK        -0.1929 
     42 C          29.7324   27.9299    5.4889 C.2       6 UNK         0.5070 
     43 O          29.6061   28.0424    6.7087 O.2       6 UNK        -0.5237 
     44 N          30.9163   27.7388    4.8849 N.am      7 UNK        -0.4739 
     45 CA         32.2467   27.5264    5.4831 C.3       7 UNK         0.0276 
     46 CB         32.2808   26.2544    6.3521 C.3       7 UNK        -0.1927 
     47 C          32.8379   28.7210    6.2538 C.2       7 UNK         0.5013 
     48 O          34.0410   28.9645    6.1515 O.2       7 UNK        -0.5193 
     49 N          32.0075   29.4463    7.0107 N.am      8 UNK        -0.4253 
     50 CA         32.3557   30.6655    7.7400 C.3       8 UNK         0.0242 
     51 CB         31.2626   30.9492    8.7861 C.3       8 UNK        -0.2000 
     52 C          32.5328   31.8301    6.7532 C.2       8 UNK         0.4948 
     53 O          31.5771   32.5634    6.4943 O.2       8 UNK        -0.5275 
     54 N          33.7234   31.9111    6.1420 N.am      9 UNK        -0.4246 
     55 CA         34.1530   32.8116    5.0580 C.3       9 UNK         0.0261 
     56 CB         34.0437   34.2934    5.4674 C.3       9 UNK        -0.1959 
     57 C          33.4588   32.5544    3.7056 C.2       9 UNK         0.5033 
     58 O          34.0984   32.7012    2.6623 O.2       9 UNK        -0.5390 
     59 N          32.1816   32.1586    3.7367 N.am      10 UNK        -0.4215 
     60 CA         31.3655   31.7385    2.6014 C.3       10 UNK         0.0240 
     61 CB         29.8892   31.7292    3.0366 C.3       10 UNK        -0.1982 
     62 C          31.8164   30.3721    2.0539 C.2       10 UNK         0.4970 
     63 O          31.1592   29.3619    2.3118 O.2       10 UNK        -0.4916 
     64 N          32.9286   30.3802    1.3161 N.am      11 UNK        -0.4279 
     65 CA         33.4628   29.2472    0.5455 C.3       11 UNK         0.1003 
     66 C          33.3931   29.4842   -0.9926 C.2       11 UNK         0.5709 
     67 N          32.7744   30.5549   -1.4786 N.am      11 UNK        -0.7358 
     68 O          33.9004   28.6765   -1.7671 O.2       11 UNK        -0.4999 
     69 C69        34.9003   28.8761    1.0042 C.3       12 UNK        -0.0954 
     70 S70        34.9370   28.1107    2.6590 S.3       12 UNK        -0.2268 
     71 C71        35.2395   26.3551    2.2624 C.3       12 UNK         0.0203 
     72 H72        24.0652   26.1109    5.2784 H         1 UNK         0.0888 
     73 H73        25.5856   26.7566    5.9008 H         1 UNK         0.0888 
     74 H74        25.2543   26.7791    4.1660 H         1 UNK         0.0888 
     75 H75        26.7430   25.3203    3.2466 H         1 UNK         0.3017 
     76 H76        26.6167   22.5091    4.0803 H         1 UNK         0.0873 
     77 H77        29.0245   22.1899    4.2693 H         1 UNK         0.0745 
     78 H78        28.4317   23.2591    5.4971 H         1 UNK         0.0745 
     79 H79        30.8955   22.5221    2.9857 H         1 UNK         0.0705 
     80 H80        31.8439   23.1662    4.3097 H         1 UNK         0.0705 
     81 H81        33.6115   24.8050    3.8140 H         1 UNK         0.1334 
     82 H82        33.9949   26.3470   -0.1762 H         1 UNK         0.1417 
     83 H83        30.6795   23.8334    0.8489 H         1 UNK         0.1562 
     84 H84        30.9742   24.5740   -1.4472 H         1 UNK         0.0748 
     85 H85        32.3768   25.4981   -1.9323 H         1 UNK         0.0748 
     86 H86        30.5067   26.8218    1.2927 H         1 UNK         0.0940 
     87 H87        29.3132   25.7710    0.5574 H         1 UNK         0.0940 
     88 H88        29.1397   28.8235    0.7231 H         1 UNK         0.0703 
     89 H89        27.2760   26.8147   -0.4202 H         1 UNK         0.3081 
     90 H90        25.0416   28.4224   -1.4754 H         1 UNK         0.0719 
     91 H91        25.6522   30.5559   -2.5819 H         1 UNK         0.0809 
     92 H92        26.9355   29.7632   -3.4877 H         1 UNK         0.0809 
     93 H93        25.2474   29.3628   -3.8035 H         1 UNK         0.0809 
     94 H94        27.3607   27.0707   -2.7373 H         1 UNK         0.2990 
     95 H95        25.6460   24.4938   -4.0415 H         1 UNK         0.0690 
     96 H96        28.2969   25.2351   -2.6634 H         1 UNK         0.0788 
     97 H97        27.8647   25.6114   -4.3316 H         1 UNK         0.0788 
     98 H98        28.0520   23.9448   -3.8282 H         1 UNK         0.0788 
     99 H99        25.3825   23.0638   -2.3665 H         1 UNK         0.2993 
    100 H100       24.6886   22.8833    0.0608 H         1 UNK         0.0949 
    101 H101       25.8064   21.1884   -1.3012 H         1 UNK         0.0767 
    102 H102       27.3194   21.3894   -0.4367 H         1 UNK         0.0767 
    103 H103       25.9224   20.6807    0.3716 H         1 UNK         0.0767 
    104 H104       25.3068   23.4026    2.1009 H         1 UNK         0.3013 
    105 H105       29.6235   28.7125    2.9505 H         1 UNK         0.3121 
    106 H106       27.9824   27.0481    4.7385 H         1 UNK         0.0774 
    107 H107       27.1897   28.9568    6.0961 H         1 UNK         0.0815 
    108 H108       27.9471   30.1031    5.0030 H         1 UNK         0.0815 
    109 H109       26.5931   29.1179    4.4552 H         1 UNK         0.0815 
    110 H110       30.9173   27.7076    3.8741 H         1 UNK         0.2987 
    111 H111       32.9119   27.3542    4.6367 H         1 UNK         0.0949 
    112 H112       33.2879   26.0666    6.7269 H         1 UNK         0.0806 
    113 H113       31.9824   25.3758    5.7828 H         1 UNK         0.0806 
    114 H114       31.6227   26.3320    7.2178 H         1 UNK         0.0806 
    115 H115       31.0367   29.1418    7.0436 H         1 UNK         0.3010 
    116 H116       33.2994   30.5102    8.2675 H         1 UNK         0.0829 
    117 H117       30.2800   31.0638    8.3261 H         1 UNK         0.0813 
    118 H118       31.1960   30.1429    9.5167 H         1 UNK         0.0813 
    119 H119       31.4764   31.8677    9.3343 H         1 UNK         0.0813 
    120 H120       34.3782   31.1656    6.3515 H         1 UNK         0.3038 
    121 H121       35.2110   32.5934    4.9032 H         1 UNK         0.0769 
    122 H122       34.4725   34.9392    4.6999 H         1 UNK         0.0811 
    123 H123       34.5827   34.4898    6.3941 H         1 UNK         0.0811 
    124 H124       33.0085   34.6055    5.6079 H         1 UNK         0.0811 
    125 H125       31.7421   32.1322    4.6530 H         1 UNK         0.3204 
    126 H126       31.4755   32.4738    1.8017 H         1 UNK         0.0748 
    127 H127       29.2405   31.3853    2.2293 H         1 UNK         0.0771 
    128 H128       29.7313   31.0717    3.8911 H         1 UNK         0.0771 
    129 H129       29.5537   32.7273    3.3189 H         1 UNK         0.0771 
    130 H130       33.4509   31.2467    1.2545 H         1 UNK         0.2980 
    131 H131       32.8231   28.3801    0.7103 H         1 UNK         0.0545 
    132 H132       32.3299   31.2182   -0.8659 H         1 UNK         0.3459 
    133 H133       32.7353   30.6856   -2.4770 H         1 UNK         0.3459 
    134 H134       35.3839   28.1959    0.3022 H         1 UNK         0.0616 
    135 H135       35.5296   29.7673    1.0263 H         1 UNK         0.0616 
    136 H136       35.9917   26.2700    1.4770 H         1 UNK         0.0634 
    137 H137       35.6717   25.8767    3.1425 H         1 UNK         0.0634 
@<TRIPOS>BOND
     1    1    2 1    
     2    1   72 1    
     3    1   73 1    
     4    1   74 1    
     5    2    3 2    
     6    2    4 am   BACKBONE|DICT|INTERRES
     7    4    5 1    
     8    4   75 1    
     9    5    6 1    
    10    5   35 1    
    11    5   76 1    
    12    6    7 1    
    13    6   77 1    
    14    6   78 1    
    15    7    8 1    
    16    8    9 1    
    17    8   79 1    
    18    8   80 1    
    19    9   10 ar   
    20    9   14 ar   
    21   10   11 ar   
    22   10   81 1    
    23   11   12 ar   
    24   11   71 1    
    25   12   13 ar   
    26   12   82 1    
    27   13   14 ar   
    28   13   15 1    
    29   14   83 1    
    30   15   16 1    
    31   15   84 1    
    32   15   85 1    
    33   16   17 1    
    34   17   18 1    
    35   17   86 1    
    36   17   87 1    
    37   18   19 1    
    38   18   37 1    
    39   18   88 1    
    40   19   20 am   BACKBONE|DICT|INTERRES
    41   19   89 1    
    42   20   21 2    
    43   20   22 1    
    44   22   23 1    
    45   22   24 1    
    46   22   90 1    
    47   23   91 1    
    48   23   92 1    
    49   23   93 1    
    50   24   25 am   BACKBONE|DICT|INTERRES
    51   24   94 1    
    52   25   26 2    
    53   25   27 1    
    54   27   28 1    
    55   27   29 1    
    56   27   95 1    
    57   28   96 1    
    58   28   97 1    
    59   28   98 1    
    60   29   30 am   BACKBONE|DICT|INTERRES
    61   29   99 1    
    62   30   31 2    
    63   30   32 1    
    64   32   33 1    
    65   32   34 1    
    66   32  100 1    
    67   33  101 1    
    68   33  102 1    
    69   33  103 1    
    70   34   35 am   BACKBONE|DICT|INTERRES
    71   34  104 1    
    72   35   36 2    
    73   37   38 2    
    74   37   39 am   BACKBONE|DICT|INTERRES
    75   39   40 1    
    76   39  105 1    
    77   40   41 1    
    78   40   42 1    
    79   40  106 1    
    80   41  107 1    
    81   41  108 1    
    82   41  109 1    
    83   42   43 2    
    84   42   44 am   BACKBONE|DICT|INTERRES
    85   44   45 1    
    86   44  110 1    
    87   45   46 1    
    88   45   47 1    
    89   45  111 1    
    90   46  112 1    
    91   46  113 1    
    92   46  114 1    
    93   47   48 2    
    94   47   49 am   BACKBONE|DICT|INTERRES
    95   49   50 1    
    96   49  115 1    
    97   50   51 1    
    98   50   52 1    
    99   50  116 1    
   100   51  117 1    
   101   51  118 1    
   102   51  119 1    
   103   52   53 2    
   104   52   54 am   BACKBONE|DICT|INTERRES
   105   54   55 1    
   106   54  120 1    
   107   55   56 1    
   108   55   57 1    
   109   55  121 1    
   110   56  122 1    
   111   56  123 1    
   112   56  124 1    
   113   57   58 2    
   114   57   59 am   BACKBONE|DICT|INTERRES
   115   59   60 1    
   116   59  125 1    
   117   60   61 1    
   118   60   62 1    
   119   60  126 1    
   120   61  127 1    
   121   61  128 1    
   122   61  129 1    
   123   62   63 2    
   124   62   64 am   BACKBONE|DICT|INTERRES
   125   64   65 1    
   126   64  130 1    
   127   65   66 1    
   128   65   69 1    
   129   65  131 1    
   130   66   67 am   BACKBONE|DICT|INTERRES
   131   66   68 2    
   132   67  132 1    
   133   67  133 1    
   134   69   70 1    
   135   69  134 1    
   136   69  135 1    
   137   70   71 1    
   138   71  136 1    
   139   71  137 1    
@<TRIPOS>SUBSTRUCTURE
     1 UNK         1 GROUP             0       ****    0 ROOT    
