@<TRIPOS>MOLECULE
3R136
137   139    1
SMALL
USER_CHARGES


@<TRIPOS>ATOM
      1 CA         30.5623   26.1618    3.0524 C.3       0 UNK        -0.1979 
      2 C          30.3306   24.8379    3.7588 C.2       0 UNK         0.4864 
      3 O          30.1360   24.8173    4.9762 O.2       0 UNK        -0.5359 
      4 N          30.3862   23.7291    3.0137 N.am      1 UNK        -0.4318 
      5 CA         30.2018   22.3599    3.5097 C.3       1 UNK         0.0824 
      6 C6         30.7275   21.3047    2.5027 C.3       12 UNK        -0.0944 
      7 S7         30.1729   21.5847    0.7812 S.3       12 UNK        -0.2672 
      8 C8         31.7553   21.7654   -0.1039 C.3       12 UNK         0.0333 
      9 C9         32.4895   23.0538    0.2490 C.ar      12 UNK        -0.0807 
     10 C10        33.5540   23.0325    1.1577 C.ar      12 UNK        -0.0894 
     11 C11        34.2678   24.1997    1.4427 C.ar      12 UNK        -0.0804 
     12 C12        33.9194   25.3900    0.8015 C.ar      12 UNK        -0.0824 
     13 C13        32.8497   25.4317   -0.0977 C.ar      12 UNK        -0.0762 
     14 C14        32.1356   24.2591   -0.3687 C.ar      12 UNK        -0.0782 
     15 C15        32.4851   26.7448   -0.7785 C.3       12 UNK         0.0230 
     16 S16        32.0458   28.0074    0.4516 S.3       12 UNK        -0.2608 
     17 C17        31.6577   29.4588   -0.5809 C.3       12 UNK        -0.0989 
     18 CA         30.1439   29.5909   -0.9032 C.3       5 UNK         0.0716 
     19 N          29.3156   29.4415    0.2950 N.am      5 UNK        -0.4135 
     20 C          28.0593   28.9907    0.3243 C.2       4 UNK         0.5031 
     21 O          27.4007   28.7445   -0.6908 O.2       4 UNK        -0.5229 
     22 CA         27.4197   28.8400    1.7151 C.3       4 UNK         0.0329 
     23 CB         26.8169   30.1720    2.1870 C.3       4 UNK        -0.2001 
     24 N          26.3705   27.8186    1.7130 N.am      4 UNK        -0.4303 
     25 C          26.5972   26.5043    1.6053 C.2       3 UNK         0.5044 
     26 O          27.7210   25.9957    1.5696 O.2       3 UNK        -0.5152 
     27 CA         25.3559   25.6045    1.4940 C.3       3 UNK         0.0319 
     28 CB         24.9226   25.4653    0.0256 C.3       3 UNK        -0.2001 
     29 N          25.6567   24.2784    2.0302 N.am      3 UNK        -0.4354 
     30 C          25.6923   23.9872    3.3367 C.2       2 UNK         0.4964 
     31 O          25.2915   24.7386    4.2260 O.2       2 UNK        -0.5047 
     32 CA         26.3554   22.6608    3.7065 C.3       2 UNK         0.0288 
     33 CB         25.7061   21.4514    3.0033 C.3       2 UNK        -0.2113 
     34 N          27.7744   22.7630    3.3759 N.am      2 UNK        -0.4145 
     35 C          28.7530   22.0504    3.9457 C.2       1 UNK         0.5006 
     36 O          28.5555   21.1767    4.7924 O.2       1 UNK        -0.5103 
     37 C          29.8050   30.9282   -1.5924 C.2       5 UNK         0.5055 
     38 O          30.6257   31.8471   -1.5929 O.2       5 UNK        -0.5220 
     39 N          28.5733   31.0222   -2.1157 N.am      6 UNK        -0.4450 
     40 CA         27.9296   32.2239   -2.6617 C.3       6 UNK         0.0367 
     41 CB         28.6626   32.7380   -3.9201 C.3       6 UNK        -0.1929 
     42 C          27.7445   33.3022   -1.5756 C.2       6 UNK         0.5070 
     43 O          28.1955   34.4369   -1.7388 O.2       6 UNK        -0.5237 
     44 N          27.0824   32.9007   -0.4787 N.am      7 UNK        -0.4739 
     45 CA         26.7598   33.7017    0.7121 C.3       7 UNK         0.0276 
     46 CB         25.8022   34.8607    0.3577 C.3       7 UNK        -0.1927 
     47 C          28.0009   34.1651    1.5037 C.2       7 UNK         0.5013 
     48 O          28.0008   35.2669    2.0565 O.2       7 UNK        -0.5193 
     49 N          29.0270   33.3090    1.5666 N.am      8 UNK        -0.4253 
     50 CA         30.2583   33.5148    2.3245 C.3       8 UNK         0.0242 
     51 CB         31.2764   34.2674    1.4479 C.3       8 UNK        -0.2000 
     52 C          30.8173   32.1564    2.7673 C.2       8 UNK         0.4948 
     53 O          30.4617   31.1350    2.1748 O.2       8 UNK        -0.5275 
     54 N          31.7095   32.1914    3.7685 N.am      9 UNK        -0.4246 
     55 CA         32.4900   31.0768    4.3286 C.3       9 UNK         0.0261 
     56 CB         33.4217   30.4839    3.2484 C.3       9 UNK        -0.1959 
     57 C          31.6533   29.9806    5.0232 C.2       9 UNK         0.5033 
     58 O          30.4209   30.0247    5.0273 O.2       9 UNK        -0.5390 
     59 N          32.3586   29.0183    5.6280 N.am      10 UNK        -0.4215 
     60 CA         31.8100   27.8309    6.2741 C.3       10 UNK         0.0240 
     61 CB         31.2465   28.1735    7.6662 C.3       10 UNK        -0.1982 
     62 C          32.9287   26.7892    6.3782 C.2       10 UNK         0.4970 
     63 O          34.0517   27.1488    6.7399 O.2       10 UNK        -0.4916 
     64 N          32.5932   25.5336    6.0763 N.am      11 UNK        -0.4279 
     65 CA         33.4583   24.3488    6.1802 C.3       11 UNK         0.1003 
     66 C          32.7674   23.1836    6.9419 C.2       11 UNK         0.5709 
     67 N          31.4447   23.1547    7.0720 N.am      11 UNK        -0.7358 
     68 O          33.4497   22.2913    7.4399 O.2       11 UNK        -0.4999 
     69 C69        33.9638   23.8615    4.7942 C.3       12 UNK        -0.0954 
     70 S70        35.0450   25.0671    3.9617 S.3       12 UNK        -0.2268 
     71 C71        35.4343   24.1812    2.4201 C.3       12 UNK         0.0203 
     72 H72        31.5761   26.5177    3.2347 H         1 UNK         0.0888 
     73 H73        30.4241   26.0642    1.9759 H         1 UNK         0.0888 
     74 H74        29.8607   26.9139    3.4117 H         1 UNK         0.0888 
     75 H75        30.5723   23.8001    2.0219 H         1 UNK         0.3017 
     76 H76        30.8062   22.2651    4.4140 H         1 UNK         0.0873 
     77 H77        31.8163   21.2985    2.5346 H         1 UNK         0.0745 
     78 H78        30.4362   20.2955    2.8014 H         1 UNK         0.0745 
     79 H79        31.5570   21.7465   -1.1766 H         1 UNK         0.0705 
     80 H80        32.3833   20.8963    0.0990 H         1 UNK         0.0705 
     81 H81        33.8381   22.1042    1.6336 H         1 UNK         0.1334 
     82 H82        34.4748   26.2934    1.0150 H         1 UNK         0.1417 
     83 H83        31.3138   24.2776   -1.0721 H         1 UNK         0.1562 
     84 H84        31.6488   26.6100   -1.4662 H         1 UNK         0.0748 
     85 H85        33.3325   27.0911   -1.3716 H         1 UNK         0.0748 
     86 H86        32.2459   29.4249   -1.4997 H         1 UNK         0.0940 
     87 H87        32.0099   30.3330   -0.0292 H         1 UNK         0.0940 
     88 H88        29.8906   28.7899   -1.6014 H         1 UNK         0.0703 
     89 H89        29.7599   29.7563    1.1564 H         1 UNK         0.3081 
     90 H90        28.1948   28.5375    2.4231 H         1 UNK         0.0719 
     91 H91        26.0497   30.5343    1.5019 H         1 UNK         0.0809 
     92 H92        26.3654   30.0736    3.1744 H         1 UNK         0.0809 
     93 H93        27.5858   30.9401    2.2666 H         1 UNK         0.0809 
     94 H94        25.4174   28.1505    1.6929 H         1 UNK         0.2990 
     95 H95        24.5368   26.0484    2.0643 H         1 UNK         0.0690 
     96 H96        24.0412   24.8308   -0.0700 H         1 UNK         0.0788 
     97 H97        25.7144   25.0367   -0.5905 H         1 UNK         0.0788 
     98 H98        24.6702   26.4370   -0.4014 H         1 UNK         0.0788 
     99 H99        26.0333   23.6086    1.3755 H         1 UNK         0.2993 
    100 H100       26.2495   22.5342    4.7865 H         1 UNK         0.0949 
    101 H101       25.8684   21.4656    1.9252 H         1 UNK         0.0767 
    102 H102       26.1100   20.5130    3.3838 H         1 UNK         0.0767 
    103 H103       24.6292   21.4314    3.1755 H         1 UNK         0.0767 
    104 H104       28.0312   23.4983    2.7295 H         1 UNK         0.3013 
    105 H105       27.9729   30.2101   -2.0016 H         1 UNK         0.3121 
    106 H106       26.9272   31.9239   -2.9716 H         1 UNK         0.0774 
    107 H107       28.1109   33.5584   -4.3805 H         1 UNK         0.0815 
    108 H108       29.6607   33.1118   -3.6905 H         1 UNK         0.0815 
    109 H109       28.7621   31.9534   -4.6698 H         1 UNK         0.0815 
    110 H110       26.7554   31.9450   -0.4607 H         1 UNK         0.2987 
    111 H111       26.2161   33.0394    1.3869 H         1 UNK         0.0949 
    112 H112       25.4433   35.3607    1.2582 H         1 UNK         0.0806 
    113 H113       26.2894   35.6169   -0.2584 H         1 UNK         0.0806 
    114 H114       24.9255   34.5018   -0.1813 H         1 UNK         0.0806 
    115 H115       28.9643   32.4094    1.1100 H         1 UNK         0.3010 
    116 H116       30.0400   34.1001    3.2205 H         1 UNK         0.0829 
    117 H117       30.8946   35.2427    1.1452 H         1 UNK         0.0813 
    118 H118       32.2117   34.4378    1.9821 H         1 UNK         0.0813 
    119 H119       31.5130   33.7069    0.5420 H         1 UNK         0.0813 
    120 H120       31.8907   33.0883    4.1970 H         1 UNK         0.3038 
    121 H121       33.1178   31.5195    5.1037 H         1 UNK         0.0769 
    122 H122       32.8583   29.9524    2.4825 H         1 UNK         0.0811 
    123 H123       34.1359   29.7775    3.6719 H         1 UNK         0.0811 
    124 H124       34.0009   31.2631    2.7529 H         1 UNK         0.0811 
    125 H125       33.3706   29.0425    5.6009 H         1 UNK         0.3204 
    126 H126       31.0050   27.4341    5.6531 H         1 UNK         0.0748 
    127 H127       30.8618   27.2808    8.1613 H         1 UNK         0.0771 
    128 H128       32.0102   28.6050    8.3143 H         1 UNK         0.0771 
    129 H129       30.4232   28.8848    7.5999 H         1 UNK         0.0771 
    130 H130       31.6399   25.3400    5.7773 H         1 UNK         0.2980 
    131 H131       34.3315   24.6049    6.7833 H         1 UNK         0.0545 
    132 H132       31.0245   22.3962    7.5850 H         1 UNK         0.3459 
    133 H133       30.8542   23.8328    6.6080 H         1 UNK         0.3459 
    134 H134       33.1223   23.6341    4.1385 H         1 UNK         0.0616 
    135 H135       34.5317   22.9350    4.8980 H         1 UNK         0.0616 
    136 H136       35.7372   23.1592    2.6528 H         1 UNK         0.0634 
    137 H137       36.2976   24.6569    1.9527 H         1 UNK         0.0634 
@<TRIPOS>BOND
     1    1    2 1    
     2    1   72 1    
     3    1   73 1    
     4    1   74 1    
     5    2    3 2    
     6    2    4 am   BACKBONE|DICT|INTERRES
     7    4    5 1    
     8    4   75 1    
     9    5    6 1    
    10    5   35 1    
    11    5   76 1    
    12    6    7 1    
    13    6   77 1    
    14    6   78 1    
    15    7    8 1    
    16    8    9 1    
    17    8   79 1    
    18    8   80 1    
    19    9   10 ar   
    20    9   14 ar   
    21   10   11 ar   
    22   10   81 1    
    23   11   12 ar   
    24   11   71 1    
    25   12   13 ar   
    26   12   82 1    
    27   13   14 ar   
    28   13   15 1    
    29   14   83 1    
    30   15   16 1    
    31   15   84 1    
    32   15   85 1    
    33   16   17 1    
    34   17   18 1    
    35   17   86 1    
    36   17   87 1    
    37   18   19 1    
    38   18   37 1    
    39   18   88 1    
    40   19   20 am   BACKBONE|DICT|INTERRES
    41   19   89 1    
    42   20   21 2    
    43   20   22 1    
    44   22   23 1    
    45   22   24 1    
    46   22   90 1    
    47   23   91 1    
    48   23   92 1    
    49   23   93 1    
    50   24   25 am   BACKBONE|DICT|INTERRES
    51   24   94 1    
    52   25   26 2    
    53   25   27 1    
    54   27   28 1    
    55   27   29 1    
    56   27   95 1    
    57   28   96 1    
    58   28   97 1    
    59   28   98 1    
    60   29   30 am   BACKBONE|DICT|INTERRES
    61   29   99 1    
    62   30   31 2    
    63   30   32 1    
    64   32   33 1    
    65   32   34 1    
    66   32  100 1    
    67   33  101 1    
    68   33  102 1    
    69   33  103 1    
    70   34   35 am   BACKBONE|DICT|INTERRES
    71   34  104 1    
    72   35   36 2    
    73   37   38 2    
    74   37   39 am   BACKBONE|DICT|INTERRES
    75   39   40 1    
    76   39  105 1    
    77   40   41 1    
    78   40   42 1    
    79   40  106 1    
    80   41  107 1    
    81   41  108 1    
    82   41  109 1    
    83   42   43 2    
    84   42   44 am   BACKBONE|DICT|INTERRES
    85   44   45 1    
    86   44  110 1    
    87   45   46 1    
    88   45   47 1    
    89   45  111 1    
    90   46  112 1    
    91   46  113 1    
    92   46  114 1    
    93   47   48 2    
    94   47   49 am   BACKBONE|DICT|INTERRES
    95   49   50 1    
    96   49  115 1    
    97   50   51 1    
    98   50   52 1    
    99   50  116 1    
   100   51  117 1    
   101   51  118 1    
   102   51  119 1    
   103   52   53 2    
   104   52   54 am   BACKBONE|DICT|INTERRES
   105   54   55 1    
   106   54  120 1    
   107   55   56 1    
   108   55   57 1    
   109   55  121 1    
   110   56  122 1    
   111   56  123 1    
   112   56  124 1    
   113   57   58 2    
   114   57   59 am   BACKBONE|DICT|INTERRES
   115   59   60 1    
   116   59  125 1    
   117   60   61 1    
   118   60   62 1    
   119   60  126 1    
   120   61  127 1    
   121   61  128 1    
   122   61  129 1    
   123   62   63 2    
   124   62   64 am   BACKBONE|DICT|INTERRES
   125   64   65 1    
   126   64  130 1    
   127   65   66 1    
   128   65   69 1    
   129   65  131 1    
   130   66   67 am   BACKBONE|DICT|INTERRES
   131   66   68 2    
   132   67  132 1    
   133   67  133 1    
   134   69   70 1    
   135   69  134 1    
   136   69  135 1    
   137   70   71 1    
   138   71  136 1    
   139   71  137 1    
@<TRIPOS>SUBSTRUCTURE
     1 UNK         1 GROUP             0       ****    0 ROOT    
