@<TRIPOS>MOLECULE
3R136
137   139    1
SMALL
USER_CHARGES


@<TRIPOS>ATOM
      1 CA         29.6729   19.8813    1.1363 C.3       0 UNK        -0.1979 
      2 C          29.3261   20.5346   -0.1934 C.2       0 UNK         0.4864 
      3 O          29.3277   19.8593   -1.2233 O.2       0 UNK        -0.5359 
      4 N          29.0197   21.8377   -0.1688 N.am      1 UNK        -0.4318 
      5 CA         28.6616   22.6542   -1.3373 C.3       1 UNK         0.0824 
      6 C6         29.6905   23.7862   -1.6219 C.3       12 UNK        -0.0944 
      7 S7         31.3992   23.1882   -1.8803 S.3       12 UNK        -0.2672 
      8 C8         32.4019   24.5568   -1.1818 C.3       12 UNK         0.0333 
      9 C9         32.3494   24.7385    0.3396 C.ar      12 UNK        -0.0807 
     10 C10        33.0792   25.7796    0.9234 C.ar      12 UNK        -0.0894 
     11 C11        33.0466   25.9971    2.3068 C.ar      12 UNK        -0.0804 
     12 C12        32.2415   25.1801    3.1103 C.ar      12 UNK        -0.0824 
     13 C13        31.4858   24.1540    2.5388 C.ar      12 UNK        -0.0762 
     14 C14        31.5870   23.9131    1.1697 C.ar      12 UNK        -0.0782 
     15 C15        30.5263   23.3154    3.3702 C.3       12 UNK         0.0230 
     16 S16        28.8030   23.5380    2.7997 S.3       12 UNK        -0.2608 
     17 C17        28.3077   25.0651    3.6661 C.3       12 UNK        -0.0989 
     18 CA         28.7036   26.3667    2.9256 C.3       5 UNK         0.0716 
     19 N          28.0293   26.5444    1.6324 N.am      5 UNK        -0.4135 
     20 C          28.3349   27.5381    0.7783 C.2       4 UNK         0.5031 
     21 O          29.2682   28.3192    0.9667 O.2       4 UNK        -0.5229 
     22 CA         27.4707   27.7411   -0.4801 C.3       4 UNK         0.0329 
     23 CB         28.2435   27.3647   -1.7518 C.3       4 UNK        -0.2001 
     24 N          26.1936   27.0278   -0.4387 N.am      4 UNK        -0.4303 
     25 C          25.1299   27.4496    0.2630 C.2       3 UNK         0.5044 
     26 O          25.1055   28.5115    0.8853 O.2       3 UNK        -0.5152 
     27 CA         23.8763   26.5530    0.2889 C.3       3 UNK         0.0319 
     28 CB         22.7831   27.1334   -0.6234 C.3       3 UNK        -0.2001 
     29 N          24.1089   25.1541   -0.0805 N.am      3 UNK        -0.4354 
     30 C          24.9104   24.2979    0.5669 C.2       2 UNK         0.4964 
     31 O          25.5772   24.6041    1.5565 O.2       2 UNK        -0.5047 
     32 CA         25.0207   22.8691   -0.0003 C.3       2 UNK         0.0288 
     33 CB         24.0852   22.5819   -1.1985 C.3       2 UNK        -0.2113 
     34 N          26.4059   22.5336   -0.3465 N.am      2 UNK        -0.4145 
     35 C          27.2258   23.2044   -1.1745 C.2       1 UNK         0.5006 
     36 O          26.8868   24.2209   -1.7849 O.2       1 UNK        -0.5103 
     37 C          28.4526   27.5931    3.8256 C.2       5 UNK         0.5055 
     38 O          27.3087   28.0375    3.9436 O.2       5 UNK        -0.5220 
     39 N          29.5337   28.1398    4.3971 N.am      6 UNK        -0.4450 
     40 CA         29.6320   29.3894    5.1660 C.3       6 UNK         0.0367 
     41 CB         28.7017   29.4041    6.3935 C.3       6 UNK        -0.1929 
     42 C          29.4717   30.6618    4.3155 C.2       6 UNK         0.5070 
     43 O          30.2123   31.6215    4.5276 O.2       6 UNK        -0.5237 
     44 N          28.5466   30.6522    3.3489 N.am      7 UNK        -0.4739 
     45 CA         28.3019   31.7506    2.4112 C.3       7 UNK         0.0276 
     46 CB         27.0347   31.4494    1.5975 C.3       7 UNK        -0.1927 
     47 C          29.4911   32.0497    1.4792 C.2       7 UNK         0.5013 
     48 O          29.6514   33.2024    1.0766 O.2       7 UNK        -0.5193 
     49 N          30.2949   31.0238    1.1578 N.am      8 UNK        -0.4253 
     50 CA         31.4935   31.1178    0.3229 C.3       8 UNK         0.0242 
     51 CB         32.0643   29.7123    0.0599 C.3       8 UNK        -0.2000 
     52 C          32.5724   32.0526    0.8957 C.2       8 UNK         0.4948 
     53 O          32.9743   32.9906    0.2048 O.2       8 UNK        -0.5275 
     54 N          33.0303   31.7824    2.1273 N.am      9 UNK        -0.4246 
     55 CA         34.1302   32.5110    2.7691 C.3       9 UNK         0.0261 
     56 CB         35.4730   32.1872    2.0707 C.3       9 UNK        -0.1959 
     57 C          34.1867   32.2375    4.2813 C.2       9 UNK         0.5033 
     58 O          35.2614   31.9261    4.7997 O.2       9 UNK        -0.5390 
     59 N          33.0378   32.3182    4.9706 N.am      10 UNK        -0.4215 
     60 CA         32.8178   32.0862    6.4120 C.3       10 UNK         0.0240 
     61 CB         33.6669   33.0272    7.2901 C.3       10 UNK        -0.1982 
     62 C          32.9750   30.6169    6.8463 C.2       10 UNK         0.4970 
     63 O          32.1424   30.1253    7.6080 O.2       10 UNK        -0.4916 
     64 N          34.0049   29.9425    6.3244 N.am      11 UNK        -0.4279 
     65 CA         34.2428   28.4914    6.3775 C.3       11 UNK         0.1003 
     66 C          34.5291   27.9143    7.7974 C.2       11 UNK         0.5709 
     67 N          34.8787   28.7320    8.7832 N.am      11 UNK        -0.7358 
     68 O          34.4703   26.7044    8.0049 O.2       11 UNK        -0.4999 
     69 C69        33.1664   27.6826    5.5946 C.3       12 UNK        -0.0954 
     70 S70        32.9202   28.2961    3.8860 S.3       12 UNK        -0.2268 
     71 C71        33.8984   27.1047    2.9182 C.3       12 UNK         0.0203 
     72 H72        30.7359   19.6443    1.1706 H         1 UNK         0.0888 
     73 H73        29.4395   20.5273    1.9820 H         1 UNK         0.0888 
     74 H74        29.1127   18.9547    1.2583 H         1 UNK         0.0888 
     75 H75        28.9995   22.3269    0.7180 H         1 UNK         0.3017 
     76 H76        28.6229   22.0247   -2.2284 H         1 UNK         0.0873 
     77 H77        29.4118   24.3272   -2.5277 H         1 UNK         0.0745 
     78 H78        29.6802   24.5164   -0.8111 H         1 UNK         0.0745 
     79 H79        32.0943   25.4880   -1.6601 H         1 UNK         0.0705 
     80 H80        33.4405   24.3907   -1.4712 H         1 UNK         0.0705 
     81 H81        33.6838   26.4194    0.2947 H         1 UNK         0.1334 
     82 H82        32.1865   25.3510    4.1751 H         1 UNK         0.1417 
     83 H83        31.0312   23.0908    0.7570 H         1 UNK         0.1562 
     84 H84        30.6051   23.5533    4.4320 H         1 UNK         0.0748 
     85 H85        30.8005   22.2643    3.2713 H         1 UNK         0.0748 
     86 H86        28.7408   25.0419    4.6682 H         1 UNK         0.0940 
     87 H87        27.2260   25.0327    3.8118 H         1 UNK         0.0940 
     88 H88        29.7718   26.3259    2.7119 H         1 UNK         0.0703 
     89 H89        27.2242   25.9541    1.4581 H         1 UNK         0.3081 
     90 H90        27.2598   28.8097   -0.5470 H         1 UNK         0.0719 
     91 H91        28.4858   26.3065   -1.7740 H         1 UNK         0.0809 
     92 H92        27.6691   27.5957   -2.6488 H         1 UNK         0.0809 
     93 H93        29.1830   27.9154   -1.8166 H         1 UNK         0.0809 
     94 H94        26.1491   26.1370   -0.9207 H         1 UNK         0.2990 
     95 H95        23.5033   26.5600    1.3152 H         1 UNK         0.0690 
     96 H96        21.8536   26.5699   -0.5395 H         1 UNK         0.0788 
     97 H97        23.0878   27.1284   -1.6708 H         1 UNK         0.0788 
     98 H98        22.5572   28.1666   -0.3551 H         1 UNK         0.0788 
     99 H99        23.6263   24.8184   -0.9016 H         1 UNK         0.2993 
    100 H100       24.7319   22.2022    0.8136 H         1 UNK         0.0949 
    101 H101       24.3172   23.2034   -2.0643 H         1 UNK         0.0767 
    102 H102       24.1687   21.5417   -1.5141 H         1 UNK         0.0767 
    103 H103       23.0394   22.7470   -0.9352 H         1 UNK         0.0767 
    104 H104       26.7863   21.7254    0.1246 H         1 UNK         0.3013 
    105 H105       30.4301   27.7228    4.1818 H         1 UNK         0.3121 
    106 H106       30.6523   29.4102    5.5424 H         1 UNK         0.0774 
    107 H107       28.9062   30.2749    7.0177 H         1 UNK         0.0815 
    108 H108       27.6490   29.4487    6.1138 H         1 UNK         0.0815 
    109 H109       28.8505   28.5204    7.0137 H         1 UNK         0.0815 
    110 H110       27.9675   29.8232    3.2613 H         1 UNK         0.2987 
    111 H111       28.1219   32.6518    3.0013 H         1 UNK         0.0949 
    112 H112       26.8115   32.2611    0.9037 H         1 UNK         0.0806 
    113 H113       27.1433   30.5382    1.0108 H         1 UNK         0.0806 
    114 H114       26.1655   31.3269    2.2439 H         1 UNK         0.0806 
    115 H115       30.0183   30.0897    1.4469 H         1 UNK         0.3010 
    116 H116       31.1839   31.5341   -0.6380 H         1 UNK         0.0829 
    117 H117       31.3717   29.1095   -0.5273 H         1 UNK         0.0813 
    118 H118       32.9983   29.7644   -0.5012 H         1 UNK         0.0813 
    119 H119       32.2673   29.1734    0.9857 H         1 UNK         0.0813 
    120 H120       32.6446   30.9985    2.6370 H         1 UNK         0.3038 
    121 H121       33.9401   33.5811    2.6629 H         1 UNK         0.0769 
    122 H122       36.2994   32.7268    2.5352 H         1 UNK         0.0811 
    123 H123       35.4669   32.4729    1.0193 H         1 UNK         0.0811 
    124 H124       35.7041   31.1228    2.1262 H         1 UNK         0.0811 
    125 H125       32.1809   32.4913    4.4549 H         1 UNK         0.3204 
    126 H126       31.7728   32.3456    6.5886 H         1 UNK         0.0748 
    127 H127       33.3969   32.9225    8.3417 H         1 UNK         0.0771 
    128 H128       34.7336   32.8169    7.2101 H         1 UNK         0.0771 
    129 H129       33.5095   34.0709    7.0181 H         1 UNK         0.0771 
    130 H130       34.6471   30.4763    5.7432 H         1 UNK         0.2980 
    131 H131       35.1834   28.3499    5.8445 H         1 UNK         0.0545 
    132 H132       35.0737   28.3523    9.6959 H         1 UNK         0.3459 
    133 H133       34.9338   29.7251    8.6239 H         1 UNK         0.3459 
    134 H134       32.2102   27.7204    6.1177 H         1 UNK         0.0616 
    135 H135       33.4436   26.6287    5.5593 H         1 UNK         0.0616 
    136 H136       34.6816   26.6647    3.5365 H         1 UNK         0.0634 
    137 H137       34.4128   27.6627    2.1344 H         1 UNK         0.0634 
@<TRIPOS>BOND
     1    1    2 1    
     2    1   72 1    
     3    1   73 1    
     4    1   74 1    
     5    2    3 2    
     6    2    4 am   BACKBONE|DICT|INTERRES
     7    4    5 1    
     8    4   75 1    
     9    5    6 1    
    10    5   35 1    
    11    5   76 1    
    12    6    7 1    
    13    6   77 1    
    14    6   78 1    
    15    7    8 1    
    16    8    9 1    
    17    8   79 1    
    18    8   80 1    
    19    9   10 ar   
    20    9   14 ar   
    21   10   11 ar   
    22   10   81 1    
    23   11   12 ar   
    24   11   71 1    
    25   12   13 ar   
    26   12   82 1    
    27   13   14 ar   
    28   13   15 1    
    29   14   83 1    
    30   15   16 1    
    31   15   84 1    
    32   15   85 1    
    33   16   17 1    
    34   17   18 1    
    35   17   86 1    
    36   17   87 1    
    37   18   19 1    
    38   18   37 1    
    39   18   88 1    
    40   19   20 am   BACKBONE|DICT|INTERRES
    41   19   89 1    
    42   20   21 2    
    43   20   22 1    
    44   22   23 1    
    45   22   24 1    
    46   22   90 1    
    47   23   91 1    
    48   23   92 1    
    49   23   93 1    
    50   24   25 am   BACKBONE|DICT|INTERRES
    51   24   94 1    
    52   25   26 2    
    53   25   27 1    
    54   27   28 1    
    55   27   29 1    
    56   27   95 1    
    57   28   96 1    
    58   28   97 1    
    59   28   98 1    
    60   29   30 am   BACKBONE|DICT|INTERRES
    61   29   99 1    
    62   30   31 2    
    63   30   32 1    
    64   32   33 1    
    65   32   34 1    
    66   32  100 1    
    67   33  101 1    
    68   33  102 1    
    69   33  103 1    
    70   34   35 am   BACKBONE|DICT|INTERRES
    71   34  104 1    
    72   35   36 2    
    73   37   38 2    
    74   37   39 am   BACKBONE|DICT|INTERRES
    75   39   40 1    
    76   39  105 1    
    77   40   41 1    
    78   40   42 1    
    79   40  106 1    
    80   41  107 1    
    81   41  108 1    
    82   41  109 1    
    83   42   43 2    
    84   42   44 am   BACKBONE|DICT|INTERRES
    85   44   45 1    
    86   44  110 1    
    87   45   46 1    
    88   45   47 1    
    89   45  111 1    
    90   46  112 1    
    91   46  113 1    
    92   46  114 1    
    93   47   48 2    
    94   47   49 am   BACKBONE|DICT|INTERRES
    95   49   50 1    
    96   49  115 1    
    97   50   51 1    
    98   50   52 1    
    99   50  116 1    
   100   51  117 1    
   101   51  118 1    
   102   51  119 1    
   103   52   53 2    
   104   52   54 am   BACKBONE|DICT|INTERRES
   105   54   55 1    
   106   54  120 1    
   107   55   56 1    
   108   55   57 1    
   109   55  121 1    
   110   56  122 1    
   111   56  123 1    
   112   56  124 1    
   113   57   58 2    
   114   57   59 am   BACKBONE|DICT|INTERRES
   115   59   60 1    
   116   59  125 1    
   117   60   61 1    
   118   60   62 1    
   119   60  126 1    
   120   61  127 1    
   121   61  128 1    
   122   61  129 1    
   123   62   63 2    
   124   62   64 am   BACKBONE|DICT|INTERRES
   125   64   65 1    
   126   64  130 1    
   127   65   66 1    
   128   65   69 1    
   129   65  131 1    
   130   66   67 am   BACKBONE|DICT|INTERRES
   131   66   68 2    
   132   67  132 1    
   133   67  133 1    
   134   69   70 1    
   135   69  134 1    
   136   69  135 1    
   137   70   71 1    
   138   71  136 1    
   139   71  137 1    
@<TRIPOS>SUBSTRUCTURE
     1 UNK         1 GROUP             0       ****    0 ROOT    
