@<TRIPOS>MOLECULE
3R136
137   139    1
SMALL
USER_CHARGES


@<TRIPOS>ATOM
      1 CA         32.0298   25.1509   -3.3980 C.3       0 UNK        -0.1979 
      2 C          31.1078   25.0012   -2.1984 C.2       0 UNK         0.4864 
      3 O          30.3419   25.9190   -1.9013 O.2       0 UNK        -0.5359 
      4 N          31.1629   23.8468   -1.5174 N.am      1 UNK        -0.4318 
      5 CA         30.4022   23.5172   -0.3016 C.3       1 UNK         0.0824 
      6 C6         30.7329   22.0985    0.2168 C.3       12 UNK        -0.0944 
      7 S7         32.4397   22.0259    0.8578 S.3       12 UNK        -0.2672 
      8 C8         32.1762   21.7267    2.6371 C.3       12 UNK         0.0333 
      9 C9         31.4031   22.8465    3.3246 C.ar      12 UNK        -0.0807 
     10 C10        32.0349   24.0508    3.6494 C.ar      12 UNK        -0.0894 
     11 C11        31.3379   25.0590    4.3244 C.ar      12 UNK        -0.0804 
     12 C12        29.9937   24.8635    4.6603 C.ar      12 UNK        -0.0824 
     13 C13        29.3484   23.6662    4.3344 C.ar      12 UNK        -0.0762 
     14 C14        30.0620   22.6616    3.6737 C.ar      12 UNK        -0.0782 
     15 C15        27.8926   23.4278    4.7157 C.3       12 UNK         0.0230 
     16 S16        26.8148   23.4035    3.2461 S.3       12 UNK        -0.2608 
     17 C17        25.8422   24.9434    3.3682 C.3       12 UNK        -0.0989 
     18 CA         26.6557   26.2521    3.5298 C.3       5 UNK         0.0716 
     19 N          27.6209   26.4824    2.4438 N.am      5 UNK        -0.4135 
     20 C          28.5253   27.4733    2.4707 C.2       4 UNK         0.5031 
     21 O          28.6815   28.2060    3.4450 O.2       4 UNK        -0.5229 
     22 CA         29.3526   27.7621    1.2067 C.3       4 UNK         0.0329 
     23 CB         30.7440   27.1285    1.3242 C.3       4 UNK        -0.2001 
     24 N          28.7240   27.3753   -0.0615 N.am      4 UNK        -0.4303 
     25 C          27.5421   27.8242   -0.5123 C.2       3 UNK         0.5044 
     26 O          26.7806   28.5281    0.1511 O.2       3 UNK        -0.5152 
     27 CA         27.1351   27.4187   -1.9348 C.3       3 UNK         0.0319 
     28 CB         27.9162   28.2357   -2.9769 C.3       3 UNK        -0.2001 
     29 N          27.3645   25.9918   -2.1483 N.am      3 UNK        -0.4354 
     30 C          26.4500   25.0399   -1.9128 C.2       2 UNK         0.4964 
     31 O          25.2740   25.2728   -1.6307 O.2       2 UNK        -0.5047 
     32 CA         26.9225   23.5741   -1.9804 C.3       2 UNK         0.0288 
     33 CB         26.6693   22.9909   -3.3801 C.3       2 UNK        -0.2113 
     34 N          28.3318   23.3788   -1.6239 N.am      2 UNK        -0.4145 
     35 C          28.8808   23.7157   -0.4466 C.2       1 UNK         0.5006 
     36 O          28.2518   24.2282    0.4782 O.2       1 UNK        -0.5103 
     37 C          25.6953   27.4453    3.7627 C.2       5 UNK         0.5055 
     38 O          25.1990   27.5916    4.8812 O.2       5 UNK        -0.5220 
     39 N          25.4547   28.2717    2.7334 N.am      6 UNK        -0.4450 
     40 CA         24.6594   29.4984    2.8161 C.3       6 UNK         0.0367 
     41 CB         23.6247   29.5082    1.6786 C.3       6 UNK        -0.1929 
     42 C          25.5491   30.7497    2.7395 C.2       6 UNK         0.5070 
     43 O          25.3267   31.6968    3.4934 O.2       6 UNK        -0.5237 
     44 N          26.5299   30.7437    1.8266 N.am      7 UNK        -0.4739 
     45 CA         27.3979   31.8843    1.5156 C.3       7 UNK         0.0276 
     46 CB         27.9363   31.7118    0.0843 C.3       7 UNK        -0.1927 
     47 C          28.5646   32.0885    2.4987 C.2       7 UNK         0.5013 
     48 O          29.2535   33.1051    2.3945 O.2       7 UNK        -0.5193 
     49 N          28.8044   31.1201    3.3939 N.am      8 UNK        -0.4253 
     50 CA         29.9257   30.9958    4.3347 C.3       8 UNK         0.0242 
     51 CB         30.0354   32.1969    5.2960 C.3       8 UNK        -0.2000 
     52 C          31.2571   30.6952    3.6290 C.2       8 UNK         0.4948 
     53 O          31.8662   29.6670    3.9166 O.2       8 UNK        -0.5275 
     54 N          31.6763   31.5891    2.7194 N.am      9 UNK        -0.4246 
     55 CA         32.8827   31.5149    1.8812 C.3       9 UNK         0.0261 
     56 CB         32.6872   30.4595    0.7722 C.3       9 UNK        -0.1959 
     57 C          34.1758   31.2890    2.6939 C.2       9 UNK         0.5033 
     58 O          35.0156   30.4725    2.3080 O.2       9 UNK        -0.5390 
     59 N          34.2793   31.9790    3.8402 N.am      10 UNK        -0.4215 
     60 CA         35.2991   31.8751    4.8966 C.3       10 UNK         0.0240 
     61 CB         36.7109   32.1993    4.3686 C.3       10 UNK        -0.1982 
     62 C          35.2835   30.5403    5.6690 C.2       10 UNK         0.4970 
     63 O          35.3825   30.5648    6.8962 O.2       10 UNK        -0.4916 
     64 N          35.1490   29.4166    4.9541 N.am      11 UNK        -0.4279 
     65 CA         35.0716   28.0434    5.4792 C.3       11 UNK         0.1003 
     66 C          36.3847   27.5269    6.1478 C.2       11 UNK         0.5709 
     67 N          37.5395   28.1194    5.8654 N.am      11 UNK        -0.7358 
     68 O          36.3725   26.5640    6.9109 O.2       11 UNK        -0.4999 
     69 C69        33.7883   27.8192    6.3361 C.3       12 UNK        -0.0954 
     70 S70        33.0910   26.1423    6.1632 S.3       12 UNK        -0.2268 
     71 C71        32.0405   26.3570    4.6937 C.3       12 UNK         0.0203 
     72 H72        31.4442   25.3223   -4.3007 H         1 UNK         0.0888 
     73 H73        32.6923   26.0039   -3.2544 H         1 UNK         0.0888 
     74 H74        32.6449   24.2649   -3.5539 H         1 UNK         0.0888 
     75 H75        31.8237   23.1403   -1.8090 H         1 UNK         0.3017 
     76 H76        30.7228   24.2235    0.4620 H         1 UNK         0.0873 
     77 H77        30.0408   21.7923    1.0025 H         1 UNK         0.0745 
     78 H78        30.6231   21.3598   -0.5793 H         1 UNK         0.0745 
     79 H79        31.6652   20.7710    2.7646 H         1 UNK         0.0705 
     80 H80        33.1483   21.6141    3.1195 H         1 UNK         0.0705 
     81 H81        33.0749   24.1975    3.3910 H         1 UNK         0.1334 
     82 H82        29.4555   25.6429    5.1816 H         1 UNK         0.1417 
     83 H83        29.5657   21.7311    3.4334 H         1 UNK         0.1562 
     84 H84        27.5435   24.1603    5.4438 H         1 UNK         0.0748 
     85 H85        27.8151   22.4600    5.2131 H         1 UNK         0.0748 
     86 H86        25.1548   24.8198    4.2079 H         1 UNK         0.0940 
     87 H87        25.2144   25.0037    2.4769 H         1 UNK         0.0940 
     88 H88        27.2380   26.1741    4.4478 H         1 UNK         0.0703 
     89 H89        27.6016   25.8426    1.6556 H         1 UNK         0.3081 
     90 H90        29.4910   28.8440    1.1599 H         1 UNK         0.0719 
     91 H91        30.6814   26.0742    1.5846 H         1 UNK         0.0809 
     92 H92        31.3196   27.2266    0.4038 H         1 UNK         0.0809 
     93 H93        31.3126   27.6164    2.1155 H         1 UNK         0.0809 
     94 H94        29.2893   26.8040   -0.6870 H         1 UNK         0.2990 
     95 H95        26.0746   27.6484   -2.0593 H         1 UNK         0.0690 
     96 H96        27.5961   27.9913   -3.9898 H         1 UNK         0.0788 
     97 H97        28.9907   28.0593   -2.9149 H         1 UNK         0.0788 
     98 H98        27.7528   29.3049   -2.8343 H         1 UNK         0.0788 
     99 H99        28.3240   25.7152   -2.3245 H         1 UNK         0.2993 
    100 H100       26.3248   23.0122   -1.2592 H         1 UNK         0.0949 
    101 H101       26.9046   21.9269   -3.4161 H         1 UNK         0.0767 
    102 H102       25.6213   23.0983   -3.6639 H         1 UNK         0.0767 
    103 H103       27.2665   23.4947   -4.1413 H         1 UNK         0.0767 
    104 H104       28.9314   22.9857   -2.3348 H         1 UNK         0.3013 
    105 H105       25.9223   28.1017    1.8475 H         1 UNK         0.3121 
    106 H106       24.1153   29.5399    3.7621 H         1 UNK         0.0774 
    107 H107       24.0986   29.4635    0.6970 H         1 UNK         0.0815 
    108 H108       23.0197   30.4154    1.7088 H         1 UNK         0.0815 
    109 H109       22.9429   28.6615    1.7587 H         1 UNK         0.0815 
    110 H110       26.6271   29.9295    1.2215 H         1 UNK         0.2987 
    111 H111       26.7951   32.7948    1.5439 H         1 UNK         0.0949 
    112 H112       28.5757   30.8331   -0.0046 H         1 UNK         0.0806 
    113 H113       27.1245   31.6086   -0.6361 H         1 UNK         0.0806 
    114 H114       28.5284   32.5763   -0.2195 H         1 UNK         0.0806 
    115 H115       28.2235   30.2908    3.3441 H         1 UNK         0.3010 
    116 H116       29.6963   30.1227    4.9476 H         1 UNK         0.0829 
    117 H117       30.2959   33.1223    4.7827 H         1 UNK         0.0813 
    118 H118       29.0980   32.3625    5.8269 H         1 UNK         0.0813 
    119 H119       30.8056   32.0187    6.0475 H         1 UNK         0.0813 
    120 H120       31.0603   32.3810    2.5517 H         1 UNK         0.3038 
    121 H121       32.9875   32.4883    1.4000 H         1 UNK         0.0769 
    122 H122       33.5121   30.4832    0.0592 H         1 UNK         0.0811 
    123 H123       32.6431   29.4511    1.1836 H         1 UNK         0.0811 
    124 H124       31.7685   30.6339    0.2121 H         1 UNK         0.0811 
    125 H125       33.5068   32.5921    4.0615 H         1 UNK         0.3204 
    126 H126       35.0418   32.6501    5.6206 H         1 UNK         0.0748 
    127 H127       37.4335   32.2249    5.1853 H         1 UNK         0.0771 
    128 H128       37.0629   31.4583    3.6505 H         1 UNK         0.0771 
    129 H129       36.7372   33.1747    3.8828 H         1 UNK         0.0771 
    130 H130       35.0904   29.5168    3.9440 H         1 UNK         0.2980 
    131 H131       34.9743   27.4350    4.5798 H         1 UNK         0.0545 
    132 H132       37.5709   28.9023    5.2328 H         1 UNK         0.3459 
    133 H133       38.3863   27.7783    6.2923 H         1 UNK         0.3459 
    134 H134       33.9856   28.0146    7.3915 H         1 UNK         0.0616 
    135 H135       33.0080   28.5272    6.0537 H         1 UNK         0.0616 
    136 H136       32.6563   26.6940    3.8591 H         1 UNK         0.0634 
    137 H137       31.3098   27.1462    4.8793 H         1 UNK         0.0634 
@<TRIPOS>BOND
     1    1    2 1    
     2    1   72 1    
     3    1   73 1    
     4    1   74 1    
     5    2    3 2    
     6    2    4 am   BACKBONE|DICT|INTERRES
     7    4    5 1    
     8    4   75 1    
     9    5    6 1    
    10    5   35 1    
    11    5   76 1    
    12    6    7 1    
    13    6   77 1    
    14    6   78 1    
    15    7    8 1    
    16    8    9 1    
    17    8   79 1    
    18    8   80 1    
    19    9   10 ar   
    20    9   14 ar   
    21   10   11 ar   
    22   10   81 1    
    23   11   12 ar   
    24   11   71 1    
    25   12   13 ar   
    26   12   82 1    
    27   13   14 ar   
    28   13   15 1    
    29   14   83 1    
    30   15   16 1    
    31   15   84 1    
    32   15   85 1    
    33   16   17 1    
    34   17   18 1    
    35   17   86 1    
    36   17   87 1    
    37   18   19 1    
    38   18   37 1    
    39   18   88 1    
    40   19   20 am   BACKBONE|DICT|INTERRES
    41   19   89 1    
    42   20   21 2    
    43   20   22 1    
    44   22   23 1    
    45   22   24 1    
    46   22   90 1    
    47   23   91 1    
    48   23   92 1    
    49   23   93 1    
    50   24   25 am   BACKBONE|DICT|INTERRES
    51   24   94 1    
    52   25   26 2    
    53   25   27 1    
    54   27   28 1    
    55   27   29 1    
    56   27   95 1    
    57   28   96 1    
    58   28   97 1    
    59   28   98 1    
    60   29   30 am   BACKBONE|DICT|INTERRES
    61   29   99 1    
    62   30   31 2    
    63   30   32 1    
    64   32   33 1    
    65   32   34 1    
    66   32  100 1    
    67   33  101 1    
    68   33  102 1    
    69   33  103 1    
    70   34   35 am   BACKBONE|DICT|INTERRES
    71   34  104 1    
    72   35   36 2    
    73   37   38 2    
    74   37   39 am   BACKBONE|DICT|INTERRES
    75   39   40 1    
    76   39  105 1    
    77   40   41 1    
    78   40   42 1    
    79   40  106 1    
    80   41  107 1    
    81   41  108 1    
    82   41  109 1    
    83   42   43 2    
    84   42   44 am   BACKBONE|DICT|INTERRES
    85   44   45 1    
    86   44  110 1    
    87   45   46 1    
    88   45   47 1    
    89   45  111 1    
    90   46  112 1    
    91   46  113 1    
    92   46  114 1    
    93   47   48 2    
    94   47   49 am   BACKBONE|DICT|INTERRES
    95   49   50 1    
    96   49  115 1    
    97   50   51 1    
    98   50   52 1    
    99   50  116 1    
   100   51  117 1    
   101   51  118 1    
   102   51  119 1    
   103   52   53 2    
   104   52   54 am   BACKBONE|DICT|INTERRES
   105   54   55 1    
   106   54  120 1    
   107   55   56 1    
   108   55   57 1    
   109   55  121 1    
   110   56  122 1    
   111   56  123 1    
   112   56  124 1    
   113   57   58 2    
   114   57   59 am   BACKBONE|DICT|INTERRES
   115   59   60 1    
   116   59  125 1    
   117   60   61 1    
   118   60   62 1    
   119   60  126 1    
   120   61  127 1    
   121   61  128 1    
   122   61  129 1    
   123   62   63 2    
   124   62   64 am   BACKBONE|DICT|INTERRES
   125   64   65 1    
   126   64  130 1    
   127   65   66 1    
   128   65   69 1    
   129   65  131 1    
   130   66   67 am   BACKBONE|DICT|INTERRES
   131   66   68 2    
   132   67  132 1    
   133   67  133 1    
   134   69   70 1    
   135   69  134 1    
   136   69  135 1    
   137   70   71 1    
   138   71  136 1    
   139   71  137 1    
@<TRIPOS>SUBSTRUCTURE
     1 UNK         1 GROUP             0       ****    0 ROOT    
