@<TRIPOS>MOLECULE
3R136
137   139    1
SMALL
USER_CHARGES


@<TRIPOS>ATOM
      1 CA         28.5736   22.1551    4.2121 C.3       0 UNK        -0.1979 
      2 C          28.4537   21.9525    2.7094 C.2       0 UNK         0.4864 
      3 O          27.9060   22.8151    2.0208 O.2       0 UNK        -0.5359 
      4 N          28.9498   20.8154    2.2000 N.am      1 UNK        -0.4318 
      5 CA         28.9430   20.4130    0.7866 C.3       1 UNK         0.0824 
      6 C6         29.9000   21.2643   -0.0966 C.3       12 UNK        -0.0944 
      7 S7         31.6446   21.0839    0.4036 S.3       12 UNK        -0.2672 
      8 C8         32.2280   22.8082    0.3642 C.3       12 UNK         0.0333 
      9 C9         31.8993   23.5567    1.6477 C.ar      12 UNK        -0.0807 
     10 C10        32.7279   23.4208    2.7642 C.ar      12 UNK        -0.0894 
     11 C11        32.4601   24.1264    3.9408 C.ar      12 UNK        -0.0804 
     12 C12        31.3481   24.9736    3.9959 C.ar      12 UNK        -0.0824 
     13 C13        30.5263   25.1391    2.8772 C.ar      12 UNK        -0.0762 
     14 C14        30.7959   24.4116    1.7129 C.ar      12 UNK        -0.0782 
     15 C15        29.3440   26.0977    2.9300 C.3       12 UNK         0.0230 
     16 S16        29.8353   27.8310    2.6171 S.3       12 UNK        -0.2608 
     17 C17        30.3327   27.7971    0.8565 C.3       12 UNK        -0.0989 
     18 CA         29.3522   28.4897   -0.1369 C.3       5 UNK         0.0716 
     19 N          27.9593   28.0701   -0.0070 N.am      5 UNK        -0.4135 
     20 C          27.4680   26.8487   -0.2190 C.2       4 UNK         0.5031 
     21 O          28.1436   25.8722   -0.5556 O.2       4 UNK        -0.5229 
     22 CA         25.9574   26.6889   -0.0267 C.3       4 UNK         0.0329 
     23 CB         25.2107   26.8199   -1.3664 C.3       4 UNK        -0.2001 
     24 N          25.7164   25.3765    0.5574 N.am      4 UNK        -0.4303 
     25 C          24.6494   25.0164    1.2800 C.2       3 UNK         0.5044 
     26 O          23.7030   25.7667    1.5262 O.2       3 UNK        -0.5152 
     27 CA         24.6583   23.5743    1.8219 C.3       3 UNK         0.0319 
     28 CB         23.2735   23.0778    2.2915 C.3       3 UNK        -0.2001 
     29 N          25.2925   22.6426    0.8811 N.am      3 UNK        -0.4354 
     30 C          24.8344   22.2431   -0.3168 C.2       2 UNK         0.4964 
     31 O          23.7162   22.5251   -0.7491 O.2       2 UNK        -0.5047 
     32 CA         25.7846   21.4199   -1.2130 C.3       2 UNK         0.0288 
     33 CB         25.9155   22.0636   -2.6058 C.3       2 UNK        -0.2113 
     34 N          27.1293   21.2637   -0.6526 N.am      2 UNK        -0.4145 
     35 C          27.4950   20.3422    0.2494 C.2       1 UNK         0.5006 
     36 O          26.7349   19.4738    0.6825 O.2       1 UNK        -0.5103 
     37 C          29.3844   30.0312   -0.1139 C.2       5 UNK         0.5055 
     38 O          28.3203   30.6602   -0.1308 O.2       5 UNK        -0.5220 
     39 N          30.5921   30.6120   -0.1378 N.am      6 UNK        -0.4450 
     40 CA         30.8461   32.0543   -0.2094 C.3       6 UNK         0.0367 
     41 CB         32.3651   32.2833   -0.2913 C.3       6 UNK        -0.1929 
     42 C          30.2599   32.8490    0.9709 C.2       6 UNK         0.5070 
     43 O          30.1387   32.3193    2.0774 O.2       6 UNK        -0.5237 
     44 N          29.9811   34.1376    0.7255 N.am      7 UNK        -0.4739 
     45 CA         29.4112   35.0978    1.6836 C.3       7 UNK         0.0276 
     46 CB         29.1411   36.4267    0.9588 C.3       7 UNK        -0.1927 
     47 C          30.2569   35.3389    2.9502 C.2       7 UNK         0.5013 
     48 O          29.7229   35.8272    3.9465 O.2       7 UNK        -0.5193 
     49 N          31.5434   34.9660    2.9033 N.am      8 UNK        -0.4253 
     50 CA         32.4540   34.9117    4.0484 C.3       8 UNK         0.0242 
     51 CB         33.8885   34.7068    3.5327 C.3       8 UNK        -0.2000 
     52 C          32.0962   33.8187    5.0765 C.2       8 UNK         0.4948 
     53 O          32.6284   33.8588    6.1859 O.2       8 UNK        -0.5275 
     54 N          31.2466   32.8484    4.6983 N.am      9 UNK        -0.4246 
     55 CA         30.6990   31.7307    5.4839 C.3       9 UNK         0.0261 
     56 CB         29.8960   32.2385    6.6973 C.3       9 UNK        -0.1959 
     57 C          31.7168   30.6560    5.9067 C.2       9 UNK         0.5033 
     58 O          31.3401   29.4882    6.0156 O.2       9 UNK        -0.5390 
     59 N          32.9821   31.0381    6.1134 N.am      10 UNK        -0.4215 
     60 CA         34.1110   30.1807    6.4838 C.3       10 UNK         0.0240 
     61 CB         35.2271   31.0666    7.0695 C.3       10 UNK        -0.1982 
     62 C          34.6049   29.2916    5.3219 C.2       10 UNK         0.4970 
     63 O          35.7905   29.3191    4.9868 O.2       10 UNK        -0.4916 
     64 N          33.6837   28.5169    4.7375 N.am      11 UNK        -0.4279 
     65 CA         33.9138   27.4971    3.6993 C.3       11 UNK         0.1003 
     66 C          34.3977   28.0512    2.3253 C.2       11 UNK         0.5709 
     67 N          34.2128   29.3334    2.0316 N.am      11 UNK        -0.7358 
     68 O          34.9198   27.3091    1.4968 O.2       11 UNK        -0.4999 
     69 C69        34.7667   26.2991    4.2174 C.3       12 UNK        -0.0954 
     70 S70        34.0683   25.5557    5.7364 S.3       12 UNK        -0.2268 
     71 C71        33.3858   23.9723    5.1417 C.3       12 UNK         0.0203 
     72 H72        29.1084   21.3365    4.6929 H         1 UNK         0.0888 
     73 H73        29.1102   23.0788    4.4233 H         1 UNK         0.0888 
     74 H74        27.5830   22.2265    4.6600 H         1 UNK         0.0888 
     75 H75        29.3670   20.1429    2.8277 H         1 UNK         0.3017 
     76 H76        29.3081   19.3849    0.7633 H         1 UNK         0.0873 
     77 H77        29.8384   20.9533   -1.1413 H         1 UNK         0.0745 
     78 H78        29.6197   22.3181   -0.0690 H         1 UNK         0.0745 
     79 H79        33.3092   22.8043    0.2184 H         1 UNK         0.0705 
     80 H80        31.8118   23.3222   -0.5037 H         1 UNK         0.0705 
     81 H81        33.5867   22.7655    2.7115 H         1 UNK         0.1334 
     82 H82        31.1415   25.5294    4.9005 H         1 UNK         0.1417 
     83 H83        30.1467   24.5171    0.8540 H         1 UNK         0.1562 
     84 H84        28.8770   26.0409    3.9142 H         1 UNK         0.0748 
     85 H85        28.5758   25.7920    2.2199 H         1 UNK         0.0748 
     86 H86        30.4580   26.7653    0.5390 H         1 UNK         0.0940 
     87 H87        31.3365   28.2171    0.7843 H         1 UNK         0.0940 
     88 H88        29.6644   28.2154   -1.1467 H         1 UNK         0.0703 
     89 H89        27.3395   28.8398    0.2169 H         1 UNK         0.3081 
     90 H90        25.6051   27.4573    0.6653 H         1 UNK         0.0719 
     91 H91        25.5260   26.0550   -2.0774 H         1 UNK         0.0809 
     92 H92        24.1329   26.7263   -1.2318 H         1 UNK         0.0809 
     93 H93        25.3968   27.7917   -1.8252 H         1 UNK         0.0809 
     94 H94        26.4780   24.7193    0.4364 H         1 UNK         0.2990 
     95 H95        25.3060   23.5932    2.6996 H         1 UNK         0.0690 
     96 H96        23.3205   22.0485    2.6469 H         1 UNK         0.0788 
     97 H97        22.5293   23.1268    1.4965 H         1 UNK         0.0788 
     98 H98        22.9026   23.6883    3.1156 H         1 UNK         0.0788 
     99 H99        26.2487   22.4015    1.1295 H         1 UNK         0.2993 
    100 H100       25.3337   20.4324   -1.3337 H         1 UNK         0.0949 
    101 H101       26.5615   21.4740   -3.2568 H         1 UNK         0.0767 
    102 H102       24.9454   22.1363   -3.0994 H         1 UNK         0.0767 
    103 H103       26.3271   23.0723   -2.5463 H         1 UNK         0.0767 
    104 H104       27.8078   21.9611   -0.9225 H         1 UNK         0.3013 
    105 H105       31.4093   30.0217   -0.1060 H         1 UNK         0.3121 
    106 H106       30.3850   32.4197   -1.1295 H         1 UNK         0.0774 
    107 H107       32.6001   33.3433   -0.3966 H         1 UNK         0.0815 
    108 H108       32.8753   31.9246    0.6038 H         1 UNK         0.0815 
    109 H109       32.7990   31.7746   -1.1523 H         1 UNK         0.0815 
    110 H110       30.1392   34.4894   -0.2087 H         1 UNK         0.2987 
    111 H111       28.4552   34.6904    2.0197 H         1 UNK         0.0949 
    112 H112       30.0599   36.8701    0.5731 H         1 UNK         0.0806 
    113 H113       28.4544   36.2920    0.1229 H         1 UNK         0.0806 
    114 H114       28.6864   37.1548    1.6323 H         1 UNK         0.0806 
    115 H115       31.8867   34.5905    2.0318 H         1 UNK         0.3010 
    116 H116       32.4053   35.8720    4.5662 H         1 UNK         0.0829 
    117 H117       34.1872   35.5101    2.8588 H         1 UNK         0.0813 
    118 H118       34.6032   34.6977    4.3570 H         1 UNK         0.0813 
    119 H119       33.9957   33.7616    2.9988 H         1 UNK         0.0813 
    120 H120       30.9118   32.8651    3.7369 H         1 UNK         0.3038 
    121 H121       29.9963   31.2317    4.8141 H         1 UNK         0.0769 
    122 H122       30.5328   32.7336    7.4309 H         1 UNK         0.0811 
    123 H123       29.3988   31.4121    7.2069 H         1 UNK         0.0811 
    124 H124       29.1229   32.9440    6.3928 H         1 UNK         0.0811 
    125 H125       33.1631   32.0368    6.0585 H         1 UNK         0.3204 
    126 H126       33.7768   29.5052    7.2741 H         1 UNK         0.0748 
    127 H127       36.0688   30.4632    7.4124 H         1 UNK         0.0771 
    128 H128       35.6089   31.7736    6.3317 H         1 UNK         0.0771 
    129 H129       34.8711   31.6377    7.9272 H         1 UNK         0.0771 
    130 H130       32.7293   28.5967    5.0787 H         1 UNK         0.2980 
    131 H131       32.9220   27.1096    3.4738 H         1 UNK         0.0545 
    132 H132       33.7934   29.9529    2.7047 H         1 UNK         0.3459 
    133 H133       34.5361   29.6847    1.1450 H         1 UNK         0.3459 
    134 H134       34.8546   25.5255    3.4531 H         1 UNK         0.0616 
    135 H135       35.7860   26.6223    4.4332 H         1 UNK         0.0616 
    136 H136       32.8343   23.4998    5.9553 H         1 UNK         0.0634 
    137 H137       34.2181   23.3071    4.9068 H         1 UNK         0.0634 
@<TRIPOS>BOND
     1    1    2 1    
     2    1   72 1    
     3    1   73 1    
     4    1   74 1    
     5    2    3 2    
     6    2    4 am   BACKBONE|DICT|INTERRES
     7    4    5 1    
     8    4   75 1    
     9    5    6 1    
    10    5   35 1    
    11    5   76 1    
    12    6    7 1    
    13    6   77 1    
    14    6   78 1    
    15    7    8 1    
    16    8    9 1    
    17    8   79 1    
    18    8   80 1    
    19    9   10 ar   
    20    9   14 ar   
    21   10   11 ar   
    22   10   81 1    
    23   11   12 ar   
    24   11   71 1    
    25   12   13 ar   
    26   12   82 1    
    27   13   14 ar   
    28   13   15 1    
    29   14   83 1    
    30   15   16 1    
    31   15   84 1    
    32   15   85 1    
    33   16   17 1    
    34   17   18 1    
    35   17   86 1    
    36   17   87 1    
    37   18   19 1    
    38   18   37 1    
    39   18   88 1    
    40   19   20 am   BACKBONE|DICT|INTERRES
    41   19   89 1    
    42   20   21 2    
    43   20   22 1    
    44   22   23 1    
    45   22   24 1    
    46   22   90 1    
    47   23   91 1    
    48   23   92 1    
    49   23   93 1    
    50   24   25 am   BACKBONE|DICT|INTERRES
    51   24   94 1    
    52   25   26 2    
    53   25   27 1    
    54   27   28 1    
    55   27   29 1    
    56   27   95 1    
    57   28   96 1    
    58   28   97 1    
    59   28   98 1    
    60   29   30 am   BACKBONE|DICT|INTERRES
    61   29   99 1    
    62   30   31 2    
    63   30   32 1    
    64   32   33 1    
    65   32   34 1    
    66   32  100 1    
    67   33  101 1    
    68   33  102 1    
    69   33  103 1    
    70   34   35 am   BACKBONE|DICT|INTERRES
    71   34  104 1    
    72   35   36 2    
    73   37   38 2    
    74   37   39 am   BACKBONE|DICT|INTERRES
    75   39   40 1    
    76   39  105 1    
    77   40   41 1    
    78   40   42 1    
    79   40  106 1    
    80   41  107 1    
    81   41  108 1    
    82   41  109 1    
    83   42   43 2    
    84   42   44 am   BACKBONE|DICT|INTERRES
    85   44   45 1    
    86   44  110 1    
    87   45   46 1    
    88   45   47 1    
    89   45  111 1    
    90   46  112 1    
    91   46  113 1    
    92   46  114 1    
    93   47   48 2    
    94   47   49 am   BACKBONE|DICT|INTERRES
    95   49   50 1    
    96   49  115 1    
    97   50   51 1    
    98   50   52 1    
    99   50  116 1    
   100   51  117 1    
   101   51  118 1    
   102   51  119 1    
   103   52   53 2    
   104   52   54 am   BACKBONE|DICT|INTERRES
   105   54   55 1    
   106   54  120 1    
   107   55   56 1    
   108   55   57 1    
   109   55  121 1    
   110   56  122 1    
   111   56  123 1    
   112   56  124 1    
   113   57   58 2    
   114   57   59 am   BACKBONE|DICT|INTERRES
   115   59   60 1    
   116   59  125 1    
   117   60   61 1    
   118   60   62 1    
   119   60  126 1    
   120   61  127 1    
   121   61  128 1    
   122   61  129 1    
   123   62   63 2    
   124   62   64 am   BACKBONE|DICT|INTERRES
   125   64   65 1    
   126   64  130 1    
   127   65   66 1    
   128   65   69 1    
   129   65  131 1    
   130   66   67 am   BACKBONE|DICT|INTERRES
   131   66   68 2    
   132   67  132 1    
   133   67  133 1    
   134   69   70 1    
   135   69  134 1    
   136   69  135 1    
   137   70   71 1    
   138   71  136 1    
   139   71  137 1    
@<TRIPOS>SUBSTRUCTURE
     1 UNK         1 GROUP             0       ****    0 ROOT    
