@<TRIPOS>MOLECULE
3R136
137   139    1
SMALL
USER_CHARGES


@<TRIPOS>ATOM
      1 CA         29.6573   17.7224    1.6485 C.3       0 UNK        -0.1979 
      2 C          29.0303   19.0936    1.4427 C.2       0 UNK         0.4864 
      3 O          27.8596   19.2872    1.7755 O.2       0 UNK        -0.5359 
      4 N          29.7962   20.0403    0.8865 N.am      1 UNK        -0.4318 
      5 CA         29.3971   21.4349    0.6759 C.3       1 UNK         0.0824 
      6 C6         30.2821   22.1560   -0.3778 C.3       12 UNK        -0.0944 
      7 S7         32.0708   21.7603   -0.3433 S.3       12 UNK        -0.2672 
      8 C8         32.7526   22.9053    0.9081 C.3       12 UNK         0.0333 
      9 C9         32.4530   24.3873    0.6871 C.ar      12 UNK        -0.0807 
     10 C10        32.3786   25.2273    1.8026 C.ar      12 UNK        -0.0894 
     11 C11        32.0721   26.5824    1.6581 C.ar      12 UNK        -0.0804 
     12 C12        31.8280   27.0982    0.3824 C.ar      12 UNK        -0.0824 
     13 C13        31.9142   26.2778   -0.7465 C.ar      12 UNK        -0.0762 
     14 C14        32.2561   24.9310   -0.5895 C.ar      12 UNK        -0.0782 
     15 C15        31.6028   26.8454   -2.1285 C.3       12 UNK         0.0230 
     16 S16        30.2547   25.9565   -2.9884 S.3       12 UNK        -0.2608 
     17 C17        28.9253   25.9385   -1.7364 C.3       12 UNK        -0.0989 
     18 CA         27.7375   26.8905   -2.0188 C.3       5 UNK         0.0716 
     19 N          26.6746   26.6860   -1.0334 N.am      5 UNK        -0.4135 
     20 C          25.4003   27.0841   -1.1618 C.2       4 UNK         0.5031 
     21 O          24.9330   27.5608   -2.1968 O.2       4 UNK        -0.5229 
     22 CA         24.4832   26.9308    0.0707 C.3       4 UNK         0.0329 
     23 CB         23.6700   25.6298   -0.0239 C.3       4 UNK        -0.2001 
     24 N          25.2065   26.9530    1.3461 N.am      4 UNK        -0.4303 
     25 C          25.8770   28.0090    1.8290 C.2       3 UNK         0.5044 
     26 O          25.8342   29.1274    1.3175 O.2       3 UNK        -0.5152 
     27 CA         26.7716   27.7872    3.0671 C.3       3 UNK         0.0319 
     28 CB         26.1104   28.3907    4.3170 C.3       3 UNK        -0.2001 
     29 N          27.1626   26.3981    3.3578 N.am      3 UNK        -0.4354 
     30 C          27.7643   25.5427    2.5173 C.2       2 UNK         0.4964 
     31 O          27.9513   25.7819    1.3225 O.2       2 UNK        -0.5047 
     32 CA         28.2026   24.1857    3.0922 C.3       2 UNK         0.0288 
     33 CB         27.1448   23.5590    4.0255 C.3       2 UNK        -0.2113 
     34 N          28.4822   23.2814    1.9798 N.am      2 UNK        -0.4145 
     35 C          29.3004   22.2238    2.0003 C.2       1 UNK         0.5006 
     36 O          29.9516   21.8744    2.9893 O.2       1 UNK        -0.5103 
     37 C          28.1400   28.3789   -2.0287 C.2       5 UNK         0.5055 
     38 O          27.9842   29.0478   -3.0519 O.2       5 UNK        -0.5220 
     39 N          28.5952   28.8766   -0.8729 N.am      6 UNK        -0.4450 
     40 CA         28.8638   30.2827   -0.5934 C.3       6 UNK         0.0367 
     41 CB         30.1567   30.7550   -1.2863 C.3       6 UNK        -0.1929 
     42 C          28.9831   30.4239    0.9238 C.2       6 UNK         0.5070 
     43 O          29.6737   29.6163    1.5439 O.2       6 UNK        -0.5237 
     44 N          28.3374   31.4421    1.4996 N.am      7 UNK        -0.4739 
     45 CA         28.3716   31.7372    2.9335 C.3       7 UNK         0.0276 
     46 CB         27.0257   32.3625    3.3446 C.3       7 UNK        -0.1927 
     47 C          29.5740   32.6412    3.2577 C.2       7 UNK         0.5013 
     48 O          29.3910   33.8051    3.6205 O.2       7 UNK        -0.5193 
     49 N          30.7841   32.1051    3.0706 N.am      8 UNK        -0.4253 
     50 CA         32.0539   32.8023    3.2564 C.3       8 UNK         0.0242 
     51 CB         32.5074   33.3846    1.9054 C.3       8 UNK        -0.2000 
     52 C          33.1027   31.8349    3.8148 C.2       8 UNK         0.4948 
     53 O          32.9175   30.6174    3.7390 O.2       8 UNK        -0.5275 
     54 N          34.1964   32.3989    4.3486 N.am      9 UNK        -0.4246 
     55 CA         35.3488   31.7007    4.9318 C.3       9 UNK         0.0261 
     56 CB         36.1845   31.0231    3.8202 C.3       9 UNK        -0.1959 
     57 C          34.9112   30.7533    6.0654 C.2       9 UNK         0.5033 
     58 O          34.3537   31.2284    7.0570 O.2       9 UNK        -0.5390 
     59 N          35.1189   29.4414    5.8872 N.am      10 UNK        -0.4215 
     60 CA         34.6917   28.3800    6.8046 C.3       10 UNK         0.0240 
     61 CB         35.2240   27.0308    6.2941 C.3       10 UNK        -0.1982 
     62 C          33.1674   28.3055    7.0203 C.2       10 UNK         0.4970 
     63 O          32.7394   27.8169    8.0668 O.2       10 UNK        -0.4916 
     64 N          32.3857   28.7939    6.0493 N.am      11 UNK        -0.4279 
     65 CA         30.9238   28.9082    6.1283 C.3       11 UNK         0.1003 
     66 C          30.4439   30.2536    6.7494 C.2       11 UNK         0.5709 
     67 N          31.3220   31.1631    7.1602 N.am      11 UNK        -0.7358 
     68 O          29.2419   30.4765    6.8706 O.2       11 UNK        -0.4999 
     69 C69        30.2602   28.6610    4.7507 C.3       12 UNK        -0.0954 
     70 S70        30.6720   27.0441    4.0136 S.3       12 UNK        -0.2268 
     71 C71        32.0189   27.4955    2.8741 C.3       12 UNK         0.0203 
     72 H72        30.6884   17.6891    1.2968 H         1 UNK         0.0888 
     73 H73        29.0902   16.9650    1.1080 H         1 UNK         0.0888 
     74 H74        29.6518   17.4630    2.7068 H         1 UNK         0.0888 
     75 H75        30.7577   19.8367    0.6516 H         1 UNK         0.3017 
     76 H76        28.3829   21.4078    0.2697 H         1 UNK         0.0873 
     77 H77        30.1324   23.2360   -0.3513 H         1 UNK         0.0745 
     78 H78        29.9351   21.8594   -1.3688 H         1 UNK         0.0745 
     79 H79        32.3819   22.5933    1.8855 H         1 UNK         0.0705 
     80 H80        33.8350   22.7753    0.9376 H         1 UNK         0.0705 
     81 H81        32.5494   24.8263    2.7926 H         1 UNK         0.1334 
     82 H82        31.5669   28.1416    0.2723 H         1 UNK         0.1417 
     83 H83        32.3228   24.3005   -1.4653 H         1 UNK         0.1562 
     84 H84        32.5033   26.7996   -2.7421 H         1 UNK         0.0748 
     85 H85        31.3319   27.8999   -2.0612 H         1 UNK         0.0748 
     86 H86        29.3400   26.1328   -0.7491 H         1 UNK         0.0940 
     87 H87        28.5558   24.9130   -1.6908 H         1 UNK         0.0940 
     88 H88        27.3361   26.6455   -3.0046 H         1 UNK         0.0703 
     89 H89        26.9798   26.3217   -0.1335 H         1 UNK         0.3081 
     90 H90        23.7870   27.7722    0.0665 H         1 UNK         0.0719 
     91 H91        24.3127   24.7486   -0.0053 H         1 UNK         0.0809 
     92 H92        22.9582   25.5453    0.7975 H         1 UNK         0.0809 
     93 H93        23.0966   25.5952   -0.9514 H         1 UNK         0.0809 
     94 H94        25.2913   26.0760    1.8384 H         1 UNK         0.2990 
     95 H95        27.6966   28.3338    2.8778 H         1 UNK         0.0690 
     96 H96        25.8477   29.4369    4.1552 H         1 UNK         0.0788 
     97 H97        26.7772   28.3591    5.1787 H         1 UNK         0.0788 
     98 H98        25.1938   27.8621    4.5812 H         1 UNK         0.0788 
     99 H99        27.0317   26.0988    4.3130 H         1 UNK         0.2993 
    100 H100       29.1266   24.3544    3.6495 H         1 UNK         0.0949 
    101 H101       26.9903   24.1613    4.9211 H         1 UNK         0.0767 
    102 H102       26.1810   23.4510    3.5262 H         1 UNK         0.0767 
    103 H103       27.4532   22.5697    4.3646 H         1 UNK         0.0767 
    104 H104       28.0576   23.5672    1.1072 H         1 UNK         0.3013 
    105 H105       28.6926   28.2709   -0.0665 H         1 UNK         0.3121 
    106 H106       28.0188   30.8774   -0.9469 H         1 UNK         0.0774 
    107 H107       30.0883   30.6694   -2.3705 H         1 UNK         0.0815 
    108 H108       31.0232   30.1802   -0.9587 H         1 UNK         0.0815 
    109 H109       30.3580   31.8024   -1.0579 H         1 UNK         0.0815 
    110 H110       27.8119   32.0820    0.9210 H         1 UNK         0.2987 
    111 H111       28.4886   30.8112    3.5007 H         1 UNK         0.0949 
    112 H112       26.8405   33.3059    2.8295 H         1 UNK         0.0806 
    113 H113       26.1951   31.6925    3.1222 H         1 UNK         0.0806 
    114 H114       27.0023   32.5639    4.4165 H         1 UNK         0.0806 
    115 H115       30.8600   31.1328    2.7898 H         1 UNK         0.3010 
    116 H116       31.9288   33.6108    3.9802 H         1 UNK         0.0829 
    117 H117       32.6502   32.6014    1.1594 H         1 UNK         0.0813 
    118 H118       31.7743   34.0894    1.5125 H         1 UNK         0.0813 
    119 H119       33.4517   33.9220    2.0007 H         1 UNK         0.0813 
    120 H120       34.2378   33.4077    4.3915 H         1 UNK         0.3038 
    121 H121       35.9748   32.4627    5.3985 H         1 UNK         0.0769 
    122 H122       35.6186   30.2657    3.2762 H         1 UNK         0.0811 
    123 H123       37.0781   30.5487    4.2282 H         1 UNK         0.0811 
    124 H124       36.5245   31.7581    3.0905 H         1 UNK         0.0811 
    125 H125       35.5600   29.1469    5.0280 H         1 UNK         0.3204 
    126 H126       35.1460   28.5842    7.7764 H         1 UNK         0.0748 
    127 H127       36.3117   27.0340    6.2194 H         1 UNK         0.0771 
    128 H128       34.9510   26.2213    6.9729 H         1 UNK         0.0771 
    129 H129       34.8186   26.7821    5.3123 H         1 UNK         0.0771 
    130 H130       32.8073   29.2272    5.2345 H         1 UNK         0.2980 
    131 H131       30.5532   28.1314    6.7993 H         1 UNK         0.0545 
    132 H132       30.9809   32.0192    7.5664 H         1 UNK         0.3459 
    133 H133       32.3207   31.0057    7.0885 H         1 UNK         0.3459 
    134 H134       29.1749   28.6929    4.8473 H         1 UNK         0.0616 
    135 H135       30.5180   29.4580    4.0558 H         1 UNK         0.0616 
    136 H136       31.8980   28.5278    2.5478 H         1 UNK         0.0634 
    137 H137       32.9690   27.4527    3.4076 H         1 UNK         0.0634 
@<TRIPOS>BOND
     1    1    2 1    
     2    1   72 1    
     3    1   73 1    
     4    1   74 1    
     5    2    3 2    
     6    2    4 am   BACKBONE|DICT|INTERRES
     7    4    5 1    
     8    4   75 1    
     9    5    6 1    
    10    5   35 1    
    11    5   76 1    
    12    6    7 1    
    13    6   77 1    
    14    6   78 1    
    15    7    8 1    
    16    8    9 1    
    17    8   79 1    
    18    8   80 1    
    19    9   10 ar   
    20    9   14 ar   
    21   10   11 ar   
    22   10   81 1    
    23   11   12 ar   
    24   11   71 1    
    25   12   13 ar   
    26   12   82 1    
    27   13   14 ar   
    28   13   15 1    
    29   14   83 1    
    30   15   16 1    
    31   15   84 1    
    32   15   85 1    
    33   16   17 1    
    34   17   18 1    
    35   17   86 1    
    36   17   87 1    
    37   18   19 1    
    38   18   37 1    
    39   18   88 1    
    40   19   20 am   BACKBONE|DICT|INTERRES
    41   19   89 1    
    42   20   21 2    
    43   20   22 1    
    44   22   23 1    
    45   22   24 1    
    46   22   90 1    
    47   23   91 1    
    48   23   92 1    
    49   23   93 1    
    50   24   25 am   BACKBONE|DICT|INTERRES
    51   24   94 1    
    52   25   26 2    
    53   25   27 1    
    54   27   28 1    
    55   27   29 1    
    56   27   95 1    
    57   28   96 1    
    58   28   97 1    
    59   28   98 1    
    60   29   30 am   BACKBONE|DICT|INTERRES
    61   29   99 1    
    62   30   31 2    
    63   30   32 1    
    64   32   33 1    
    65   32   34 1    
    66   32  100 1    
    67   33  101 1    
    68   33  102 1    
    69   33  103 1    
    70   34   35 am   BACKBONE|DICT|INTERRES
    71   34  104 1    
    72   35   36 2    
    73   37   38 2    
    74   37   39 am   BACKBONE|DICT|INTERRES
    75   39   40 1    
    76   39  105 1    
    77   40   41 1    
    78   40   42 1    
    79   40  106 1    
    80   41  107 1    
    81   41  108 1    
    82   41  109 1    
    83   42   43 2    
    84   42   44 am   BACKBONE|DICT|INTERRES
    85   44   45 1    
    86   44  110 1    
    87   45   46 1    
    88   45   47 1    
    89   45  111 1    
    90   46  112 1    
    91   46  113 1    
    92   46  114 1    
    93   47   48 2    
    94   47   49 am   BACKBONE|DICT|INTERRES
    95   49   50 1    
    96   49  115 1    
    97   50   51 1    
    98   50   52 1    
    99   50  116 1    
   100   51  117 1    
   101   51  118 1    
   102   51  119 1    
   103   52   53 2    
   104   52   54 am   BACKBONE|DICT|INTERRES
   105   54   55 1    
   106   54  120 1    
   107   55   56 1    
   108   55   57 1    
   109   55  121 1    
   110   56  122 1    
   111   56  123 1    
   112   56  124 1    
   113   57   58 2    
   114   57   59 am   BACKBONE|DICT|INTERRES
   115   59   60 1    
   116   59  125 1    
   117   60   61 1    
   118   60   62 1    
   119   60  126 1    
   120   61  127 1    
   121   61  128 1    
   122   61  129 1    
   123   62   63 2    
   124   62   64 am   BACKBONE|DICT|INTERRES
   125   64   65 1    
   126   64  130 1    
   127   65   66 1    
   128   65   69 1    
   129   65  131 1    
   130   66   67 am   BACKBONE|DICT|INTERRES
   131   66   68 2    
   132   67  132 1    
   133   67  133 1    
   134   69   70 1    
   135   69  134 1    
   136   69  135 1    
   137   70   71 1    
   138   71  136 1    
   139   71  137 1    
@<TRIPOS>SUBSTRUCTURE
     1 UNK         1 GROUP             0       ****    0 ROOT    
