@<TRIPOS>MOLECULE
3R136
137   139    1
SMALL
USER_CHARGES


@<TRIPOS>ATOM
      1 CA         31.3152   23.0065   -2.7683 C.3       0 UNK        -0.1979 
      2 C          30.3224   23.2404   -1.6412 C.2       0 UNK         0.4864 
      3 O          29.4766   24.1291   -1.7472 O.2       0 UNK        -0.5359 
      4 N          30.4001   22.4382   -0.5702 N.am      1 UNK        -0.4318 
      5 CA         29.6048   22.5415    0.6662 C.3       1 UNK         0.0824 
      6 C6         30.0626   21.5067    1.7223 C.3       12 UNK        -0.0944 
      7 S7         31.8117   21.7398    2.1881 S.3       12 UNK        -0.2672 
      8 C8         31.6756   22.3109    3.9124 C.3       12 UNK         0.0333 
      9 C9         31.0554   23.6977    4.0254 C.ar      12 UNK        -0.0807 
     10 C10        31.8048   24.8315    3.6969 C.ar      12 UNK        -0.0894 
     11 C11        31.2593   26.1101    3.8481 C.ar      12 UNK        -0.0804 
     12 C12        29.9552   26.2501    4.3287 C.ar      12 UNK        -0.0824 
     13 C13        29.1907   25.1256    4.6515 C.ar      12 UNK        -0.0762 
     14 C14        29.7470   23.8516    4.4963 C.ar      12 UNK        -0.0782 
     15 C15        27.7746   25.2773    5.1901 C.3       12 UNK         0.0230 
     16 S16        26.5399   24.9820    3.8860 S.3       12 UNK        -0.2608 
     17 C17        25.8197   26.6358    3.6103 C.3       12 UNK        -0.0989 
     18 CA         26.8074   27.6909    3.0539 C.3       5 UNK         0.0716 
     19 N          27.5586   27.2121    1.8880 N.am      5 UNK        -0.4135 
     20 C          28.5859   27.8585    1.3207 C.2       4 UNK         0.5031 
     21 O          29.0664   28.8965    1.7774 O.2       4 UNK        -0.5229 
     22 CA         29.1413   27.3088   -0.0049 C.3       4 UNK         0.0329 
     23 CB         30.4857   26.6035    0.2265 C.3       4 UNK        -0.2001 
     24 N          28.2401   26.4222   -0.7543 N.am      4 UNK        -0.4303 
     25 C          27.0192   26.7518   -1.2058 C.2       3 UNK         0.5044 
     26 O          26.4562   27.8101   -0.9229 O.2       3 UNK        -0.5152 
     27 CA         26.2946   25.7481   -2.1152 C.3       3 UNK         0.0319 
     28 CB         26.6702   26.0006   -3.5842 C.3       3 UNK        -0.2001 
     29 N          26.6054   24.3573   -1.7748 N.am      3 UNK        -0.4354 
     30 C          25.7014   23.4328   -1.4158 C.2       2 UNK         0.4964 
     31 O          24.4931   23.6545   -1.3264 O.2       2 UNK        -0.5047 
     32 CA         26.2141   22.0089   -1.1147 C.3       2 UNK         0.0288 
     33 CB         26.0353   21.1039   -2.3448 C.3       2 UNK        -0.2113 
     34 N          27.6156   21.9677   -0.6919 N.am      2 UNK        -0.4145 
     35 C          28.0743   22.4688    0.4639 C.2       1 UNK         0.5006 
     36 O          27.3347   22.8953    1.3487 O.2       1 UNK        -0.5103 
     37 C          26.0741   29.0264    2.7973 C.2       5 UNK         0.5055 
     38 O          25.8138   29.7527    3.7571 O.2       5 UNK        -0.5220 
     39 N          25.7671   29.3432    1.5284 N.am      6 UNK        -0.4450 
     40 CA         25.2109   30.6366    1.1232 C.3       6 UNK         0.0367 
     41 CB         24.5926   30.5133   -0.2785 C.3       6 UNK        -0.1929 
     42 C          26.2568   31.7666    1.1515 C.2       6 UNK         0.5070 
     43 O          25.8790   32.9249    1.3298 O.2       6 UNK        -0.5237 
     44 N          27.5402   31.4213    0.9734 N.am      7 UNK        -0.4739 
     45 CA         28.6653   32.3515    1.0624 C.3       7 UNK         0.0276 
     46 CB         29.8044   31.8879    0.1373 C.3       7 UNK        -0.1927 
     47 C          29.1474   32.4842    2.5134 C.2       7 UNK         0.5013 
     48 O          29.2532   33.6071    3.0076 O.2       7 UNK        -0.5193 
     49 N          29.4159   31.3358    3.1587 N.am      8 UNK        -0.4253 
     50 CA         29.8896   31.1767    4.5416 C.3       8 UNK         0.0242 
     51 CB         28.7473   31.4786    5.5336 C.3       8 UNK        -0.2000 
     52 C          31.1747   31.9811    4.8363 C.2       8 UNK         0.4948 
     53 O          31.2404   32.7038    5.8337 O.2       8 UNK        -0.5275 
     54 N          32.1519   31.8682    3.9268 N.am      9 UNK        -0.4246 
     55 CA         33.4287   32.5829    3.9545 C.3       9 UNK         0.0261 
     56 CB         33.8334   32.9122    2.5014 C.3       9 UNK        -0.1959 
     57 C          34.4931   31.7883    4.7397 C.2       9 UNK         0.5033 
     58 O          34.2083   31.2896    5.8309 O.2       9 UNK        -0.5390 
     59 N          35.7105   31.6813    4.1899 N.am      10 UNK        -0.4215 
     60 CA         36.8376   30.9333    4.7534 C.3       10 UNK         0.0240 
     61 CB         38.1479   31.4787    4.1541 C.3       10 UNK        -0.1982 
     62 C          36.6688   29.4179    4.5297 C.2       10 UNK         0.4970 
     63 O          37.4071   28.8212    3.7438 O.2       10 UNK        -0.4916 
     64 N          35.6713   28.8351    5.2027 N.am      11 UNK        -0.4279 
     65 CA         35.2844   27.4185    5.1005 C.3       11 UNK         0.1003 
     66 C          36.3044   26.4084    5.7028 C.2       11 UNK         0.5709 
     67 N          37.2731   26.8361    6.5043 N.am      11 UNK        -0.7358 
     68 O          36.2169   25.2134    5.4311 O.2       11 UNK        -0.4999 
     69 C69        33.8648   27.1685    5.6745 C.3       12 UNK        -0.0954 
     70 S70        32.5946   28.2702    4.9658 S.3       12 UNK        -0.2268 
     71 C71        32.0711   27.3460    3.4917 C.3       12 UNK         0.0203 
     72 H72        31.9108   23.9041   -2.9317 H         1 UNK         0.0888 
     73 H73        31.9943   22.1827   -2.5497 H         1 UNK         0.0888 
     74 H74        30.7855   22.7760   -3.6921 H         1 UNK         0.0888 
     75 H75        31.1198   21.7293   -0.5462 H         1 UNK         0.3017 
     76 H76        29.7954   23.5341    1.0772 H         1 UNK         0.0873 
     77 H77        29.9406   20.4913    1.3406 H         1 UNK         0.0745 
     78 H78        29.4441   21.5657    2.6198 H         1 UNK         0.0745 
     79 H79        31.1068   21.5812    4.4909 H         1 UNK         0.0705 
     80 H80        32.6739   22.3308    4.3521 H         1 UNK         0.0705 
     81 H81        32.8170   24.7158    3.3335 H         1 UNK         0.1334 
     82 H82        29.5481   27.2419    4.4586 H         1 UNK         0.1417 
     83 H83        29.1597   22.9804    4.7528 H         1 UNK         0.1562 
     84 H84        27.6319   26.2612    5.6391 H         1 UNK         0.0748 
     85 H85        27.6133   24.5562    5.9927 H         1 UNK         0.0748 
     86 H86        25.3877   26.9795    4.5526 H         1 UNK         0.0940 
     87 H87        24.9786   26.5089    2.9256 H         1 UNK         0.0940 
     88 H88        27.5359   27.9077    3.8344 H         1 UNK         0.0703 
     89 H89        27.2388   26.3498    1.4716 H         1 UNK         0.3081 
     90 H90        29.3266   28.1737   -0.6450 H         1 UNK         0.0719 
     91 H91        30.3895   25.7650    0.9158 H         1 UNK         0.0809 
     92 H92        30.9084   26.2308   -0.7062 H         1 UNK         0.0809 
     93 H93        31.2165   27.2927    0.6489 H         1 UNK         0.0809 
     94 H94        28.6522   25.5468   -1.0735 H         1 UNK         0.2990 
     95 H95        25.2251   25.9385   -2.0041 H         1 UNK         0.0690 
     96 H96        26.4559   27.0309   -3.8721 H         1 UNK         0.0788 
     97 H97        26.1033   25.3529   -4.2531 H         1 UNK         0.0788 
     98 H98        27.7312   25.8227   -3.7656 H         1 UNK         0.0788 
     99 H99        27.5869   24.0944   -1.8126 H         1 UNK         0.2993 
    100 H100       25.6039   21.6092   -0.3016 H         1 UNK         0.0949 
    101 H101       26.3202   20.0746   -2.1255 H         1 UNK         0.0767 
    102 H102       24.9937   21.0877   -2.6691 H         1 UNK         0.0767 
    103 H103       26.6343   21.4472   -3.1894 H         1 UNK         0.0767 
    104 H104       28.2887   21.6348   -1.3666 H         1 UNK         0.3013 
    105 H105       26.0060   28.6996    0.7779 H         1 UNK         0.3121 
    106 H106       24.4148   30.9042    1.8216 H         1 UNK         0.0774 
    107 H107       24.1117   31.4465   -0.5747 H         1 UNK         0.0815 
    108 H108       25.3452   30.2821   -1.0333 H         1 UNK         0.0815 
    109 H109       23.8332   29.7320   -0.3116 H         1 UNK         0.0815 
    110 H110       27.7706   30.4401    0.8895 H         1 UNK         0.2987 
    111 H111       28.3453   33.3399    0.7240 H         1 UNK         0.0949 
    112 H112       30.1762   30.8977    0.4013 H         1 UNK         0.0806 
    113 H113       29.4780   31.8540   -0.9022 H         1 UNK         0.0806 
    114 H114       30.6494   32.5760    0.1881 H         1 UNK         0.0806 
    115 H115       29.2969   30.4664    2.6391 H         1 UNK         0.3010 
    116 H116       30.1532   30.1244    4.6562 H         1 UNK         0.0829 
    117 H117       28.4394   32.5238    5.4881 H         1 UNK         0.0813 
    118 H118       27.8719   30.8626    5.3279 H         1 UNK         0.0813 
    119 H119       29.0548   31.2723    6.5595 H         1 UNK         0.0813 
    120 H120       32.0136   31.2250    3.1614 H         1 UNK         0.3038 
    121 H121       33.2954   33.5302    4.4811 H         1 UNK         0.0769 
    122 H122       34.0363   32.0130    1.9178 H         1 UNK         0.0811 
    123 H123       34.7195   33.5473    2.4656 H         1 UNK         0.0811 
    124 H124       33.0398   33.4601    1.9921 H         1 UNK         0.0811 
    125 H125       35.8589   32.0965    3.2815 H         1 UNK         0.3204 
    126 H126       36.8714   31.1039    5.8318 H         1 UNK         0.0748 
    127 H127       39.0122   30.9534    4.5632 H         1 UNK         0.0771 
    128 H128       38.1789   31.3629    3.0699 H         1 UNK         0.0771 
    129 H129       38.2774   32.5369    4.3820 H         1 UNK         0.0771 
    130 H130       35.0685   29.4271    5.7647 H         1 UNK         0.2980 
    131 H131       35.2435   27.1863    4.0348 H         1 UNK         0.0545 
    132 H132       37.9292   26.1721    6.8839 H         1 UNK         0.3459 
    133 H133       37.3517   27.8134    6.7344 H         1 UNK         0.3459 
    134 H134       33.8662   27.3249    6.7546 H         1 UNK         0.0616 
    135 H135       33.5615   26.1317    5.5236 H         1 UNK         0.0616 
    136 H136       31.4624   28.0094    2.8773 H         1 UNK         0.0634 
    137 H137       32.9447   27.0850    2.8928 H         1 UNK         0.0634 
@<TRIPOS>BOND
     1    1    2 1    
     2    1   72 1    
     3    1   73 1    
     4    1   74 1    
     5    2    3 2    
     6    2    4 am   BACKBONE|DICT|INTERRES
     7    4    5 1    
     8    4   75 1    
     9    5    6 1    
    10    5   35 1    
    11    5   76 1    
    12    6    7 1    
    13    6   77 1    
    14    6   78 1    
    15    7    8 1    
    16    8    9 1    
    17    8   79 1    
    18    8   80 1    
    19    9   10 ar   
    20    9   14 ar   
    21   10   11 ar   
    22   10   81 1    
    23   11   12 ar   
    24   11   71 1    
    25   12   13 ar   
    26   12   82 1    
    27   13   14 ar   
    28   13   15 1    
    29   14   83 1    
    30   15   16 1    
    31   15   84 1    
    32   15   85 1    
    33   16   17 1    
    34   17   18 1    
    35   17   86 1    
    36   17   87 1    
    37   18   19 1    
    38   18   37 1    
    39   18   88 1    
    40   19   20 am   BACKBONE|DICT|INTERRES
    41   19   89 1    
    42   20   21 2    
    43   20   22 1    
    44   22   23 1    
    45   22   24 1    
    46   22   90 1    
    47   23   91 1    
    48   23   92 1    
    49   23   93 1    
    50   24   25 am   BACKBONE|DICT|INTERRES
    51   24   94 1    
    52   25   26 2    
    53   25   27 1    
    54   27   28 1    
    55   27   29 1    
    56   27   95 1    
    57   28   96 1    
    58   28   97 1    
    59   28   98 1    
    60   29   30 am   BACKBONE|DICT|INTERRES
    61   29   99 1    
    62   30   31 2    
    63   30   32 1    
    64   32   33 1    
    65   32   34 1    
    66   32  100 1    
    67   33  101 1    
    68   33  102 1    
    69   33  103 1    
    70   34   35 am   BACKBONE|DICT|INTERRES
    71   34  104 1    
    72   35   36 2    
    73   37   38 2    
    74   37   39 am   BACKBONE|DICT|INTERRES
    75   39   40 1    
    76   39  105 1    
    77   40   41 1    
    78   40   42 1    
    79   40  106 1    
    80   41  107 1    
    81   41  108 1    
    82   41  109 1    
    83   42   43 2    
    84   42   44 am   BACKBONE|DICT|INTERRES
    85   44   45 1    
    86   44  110 1    
    87   45   46 1    
    88   45   47 1    
    89   45  111 1    
    90   46  112 1    
    91   46  113 1    
    92   46  114 1    
    93   47   48 2    
    94   47   49 am   BACKBONE|DICT|INTERRES
    95   49   50 1    
    96   49  115 1    
    97   50   51 1    
    98   50   52 1    
    99   50  116 1    
   100   51  117 1    
   101   51  118 1    
   102   51  119 1    
   103   52   53 2    
   104   52   54 am   BACKBONE|DICT|INTERRES
   105   54   55 1    
   106   54  120 1    
   107   55   56 1    
   108   55   57 1    
   109   55  121 1    
   110   56  122 1    
   111   56  123 1    
   112   56  124 1    
   113   57   58 2    
   114   57   59 am   BACKBONE|DICT|INTERRES
   115   59   60 1    
   116   59  125 1    
   117   60   61 1    
   118   60   62 1    
   119   60  126 1    
   120   61  127 1    
   121   61  128 1    
   122   61  129 1    
   123   62   63 2    
   124   62   64 am   BACKBONE|DICT|INTERRES
   125   64   65 1    
   126   64  130 1    
   127   65   66 1    
   128   65   69 1    
   129   65  131 1    
   130   66   67 am   BACKBONE|DICT|INTERRES
   131   66   68 2    
   132   67  132 1    
   133   67  133 1    
   134   69   70 1    
   135   69  134 1    
   136   69  135 1    
   137   70   71 1    
   138   71  136 1    
   139   71  137 1    
@<TRIPOS>SUBSTRUCTURE
     1 UNK         1 GROUP             0       ****    0 ROOT    
