@<TRIPOS>MOLECULE
3R136
137   139    1
SMALL
USER_CHARGES


@<TRIPOS>ATOM
      1 CA         28.4166   22.5203   -3.7730 C.3       0 UNK        -0.1979 
      2 C          28.5137   22.9658   -2.3227 C.2       0 UNK         0.4864 
      3 O          28.2966   24.1428   -2.0331 O.2       0 UNK        -0.5359 
      4 N          28.8212   22.0321   -1.4102 N.am      1 UNK        -0.4318 
      5 CA         29.0243   22.2424    0.0326 C.3       1 UNK         0.0824 
      6 C6         29.3027   20.9092    0.7668 C.3       12 UNK        -0.0944 
      7 S7         30.8687   20.1577    0.2093 S.3       12 UNK        -0.2672 
      8 C8         31.8291   20.0742    1.7562 C.3       12 UNK         0.0333 
      9 C9         32.0669   21.4429    2.3832 C.ar      12 UNK        -0.0807 
     10 C10        32.8928   22.3758    1.7517 C.ar      12 UNK        -0.0894 
     11 C11        33.1435   23.6227    2.3337 C.ar      12 UNK        -0.0804 
     12 C12        32.5659   23.9216    3.5759 C.ar      12 UNK        -0.0824 
     13 C13        31.7248   23.0027    4.2148 C.ar      12 UNK        -0.0762 
     14 C14        31.4834   21.7652    3.6112 C.ar      12 UNK        -0.0782 
     15 C15        31.0864   23.3080    5.5695 C.3       12 UNK         0.0230 
     16 S16        30.4403   25.0069    5.7508 S.3       12 UNK        -0.2608 
     17 C17        29.2805   25.1518    4.3481 C.3       12 UNK        -0.0989 
     18 CA         29.4156   26.5259    3.6332 C.3       5 UNK         0.0716 
     19 N          29.3793   26.3883    2.1736 N.am      5 UNK        -0.4135 
     20 C          29.9078   27.2843    1.3277 C.2       4 UNK         0.5031 
     21 O          30.4494   28.3288    1.6837 O.2       4 UNK        -0.5229 
     22 CA         29.7762   26.9936   -0.1747 C.3       4 UNK         0.0329 
     23 CB         30.8220   25.9609   -0.6245 C.3       4 UNK        -0.2001 
     24 N          28.4377   26.5519   -0.5716 N.am      4 UNK        -0.4303 
     25 C          27.3151   27.2720   -0.4269 C.2       3 UNK         0.5044 
     26 O          27.2701   28.3690    0.1293 O.2       3 UNK        -0.5152 
     27 CA         26.0229   26.6572   -0.9814 C.3       3 UNK         0.0319 
     28 CB         25.9712   26.7817   -2.5130 C.3       3 UNK        -0.2001 
     29 N          25.9147   25.2506   -0.5984 N.am      3 UNK        -0.4354 
     30 C          25.3010   24.8171    0.5114 C.2       2 UNK         0.4964 
     31 O          24.6741   25.5481    1.2774 O.2       2 UNK        -0.5047 
     32 CA         25.4048   23.3157    0.8388 C.3       2 UNK         0.0288 
     33 CB         24.1806   22.5614    0.2950 C.3       2 UNK        -0.2113 
     34 N          26.6252   22.6761    0.3395 N.am      2 UNK        -0.4145 
     35 C          27.8704   22.9993    0.7188 C.2       1 UNK         0.5006 
     36 O          28.1303   23.8839    1.5351 O.2       1 UNK        -0.5103 
     37 C          28.3857   27.5505    4.1642 C.2       5 UNK         0.5055 
     38 O          28.5109   27.9938    5.3068 O.2       5 UNK        -0.5220 
     39 N          27.3718   27.8961    3.3549 N.am      6 UNK        -0.4450 
     40 CA         26.3310   28.8643    3.7101 C.3       6 UNK         0.0367 
     41 CB         25.0612   28.5804    2.8925 C.3       6 UNK        -0.1929 
     42 C          26.7808   30.3232    3.5236 C.2       6 UNK         0.5070 
     43 O          26.2311   31.2052    4.1851 O.2       6 UNK        -0.5237 
     44 N          27.7525   30.5655    2.6331 N.am      7 UNK        -0.4739 
     45 CA         28.3478   31.8822    2.4018 C.3       7 UNK         0.0276 
     46 CB         29.1232   31.8593    1.0750 C.3       7 UNK        -0.1927 
     47 C          29.2579   32.2901    3.5735 C.2       7 UNK         0.5013 
     48 O          30.0569   31.4744    4.0357 O.2       7 UNK        -0.5193 
     49 N          29.1249   33.5430    4.0304 N.am      8 UNK        -0.4253 
     50 CA         29.8762   34.0868    5.1671 C.3       8 UNK         0.0242 
     51 CB         29.2132   35.3880    5.6481 C.3       8 UNK        -0.2000 
     52 C          31.3631   34.3216    4.8544 C.2       8 UNK         0.4948 
     53 O          32.2119   34.0551    5.7056 O.2       8 UNK        -0.5275 
     54 N          31.6545   34.8000    3.6383 N.am      9 UNK        -0.4246 
     55 CA         33.0057   35.0607    3.1381 C.3       9 UNK         0.0261 
     56 CB         32.9837   36.3504    2.2950 C.3       9 UNK        -0.1959 
     57 C          33.5249   33.8442    2.3517 C.2       9 UNK         0.5033 
     58 O          33.8871   33.9749    1.1804 O.2       9 UNK        -0.5390 
     59 N          33.5208   32.6742    2.9979 N.am      10 UNK        -0.4215 
     60 CA         33.9019   31.3851    2.4268 C.3       10 UNK         0.0240 
     61 CB         32.7647   30.8508    1.5298 C.3       10 UNK        -0.1982 
     62 C          34.2577   30.4077    3.5581 C.2       10 UNK         0.4970 
     63 O          34.4176   30.8238    4.7088 O.2       10 UNK        -0.4916 
     64 N          34.3926   29.1289    3.1945 N.am      11 UNK        -0.4279 
     65 CA         34.6113   27.9796    4.0828 C.3       11 UNK         0.1003 
     66 C          33.4720   27.7319    5.1152 C.2       11 UNK         0.5709 
     67 N          33.7234   26.9025    6.1198 N.am      11 UNK        -0.7358 
     68 O          32.3692   28.2620    5.0155 O.2       11 UNK        -0.4999 
     69 C69        34.9427   26.7076    3.2529 C.3       12 UNK        -0.0954 
     70 S70        33.7377   26.3606    1.9219 S.3       12 UNK        -0.2268 
     71 C71        34.0624   24.5968    1.5961 C.3       12 UNK         0.0203 
     72 H72        29.1335   23.0715   -4.3808 H         1 UNK         0.0888 
     73 H73        28.6204   21.4559   -3.8882 H         1 UNK         0.0888 
     74 H74        27.4176   22.7197   -4.1595 H         1 UNK         0.0888 
     75 H75        28.9971   21.0881   -1.7246 H         1 UNK         0.3017 
     76 H76        29.9094   22.8717    0.1370 H         1 UNK         0.0873 
     77 H77        29.3391   21.0594    1.8471 H         1 UNK         0.0745 
     78 H78        28.4953   20.1955    0.5927 H         1 UNK         0.0745 
     79 H79        32.7925   19.6080    1.5453 H         1 UNK         0.0705 
     80 H80        31.3170   19.4095    2.4537 H         1 UNK         0.0705 
     81 H81        33.3441   22.1243    0.8013 H         1 UNK         0.1334 
     82 H82        32.7597   24.8722    4.0511 H         1 UNK         0.1417 
     83 H83        30.8467   21.0437    4.1053 H         1 UNK         0.1562 
     84 H84        31.8300   23.1357    6.3485 H         1 UNK         0.0748 
     85 H85        30.2669   22.6157    5.7692 H         1 UNK         0.0748 
     86 H86        28.2629   24.9627    4.6963 H         1 UNK         0.0940 
     87 H87        29.4957   24.3417    3.6524 H         1 UNK         0.0940 
     88 H88        30.3988   26.9372    3.8698 H         1 UNK         0.0703 
     89 H89        28.9359   25.5475    1.8089 H         1 UNK         0.3081 
     90 H90        29.9746   27.9256   -0.7082 H         1 UNK         0.0719 
     91 H91        30.7388   25.7448   -1.6897 H         1 UNK         0.0809 
     92 H92        31.8319   26.3318   -0.4476 H         1 UNK         0.0809 
     93 H93        30.7227   25.0218   -0.0814 H         1 UNK         0.0809 
     94 H94        28.3820   25.6611   -1.0636 H         1 UNK         0.2990 
     95 H95        25.1801   27.2196   -0.5733 H         1 UNK         0.0690 
     96 H96        26.0457   27.8255   -2.8210 H         1 UNK         0.0788 
     97 H97        25.0325   26.3935   -2.9085 H         1 UNK         0.0788 
     98 H98        26.7859   26.2401   -2.9955 H         1 UNK         0.0788 
     99 H99        26.4588   24.5936   -1.1459 H         1 UNK         0.2993 
    100 H100       25.4088   23.2251    1.9274 H         1 UNK         0.0949 
    101 H101       24.1374   22.5939   -0.7945 H         1 UNK         0.0767 
    102 H102       24.1898   21.5151    0.6013 H         1 UNK         0.0767 
    103 H103       23.2543   22.9986    0.6711 H         1 UNK         0.0767 
    104 H104       26.5094   21.9501   -0.3526 H         1 UNK         0.3013 
    105 H105       27.3451   27.5218    2.4165 H         1 UNK         0.3121 
    106 H106       26.0792   28.7357    4.7652 H         1 UNK         0.0774 
    107 H107       25.2354   28.6755    1.8207 H         1 UNK         0.0815 
    108 H108       24.2648   29.2781    3.1548 H         1 UNK         0.0815 
    109 H109       24.6842   27.5760    3.0843 H         1 UNK         0.0815 
    110 H110       28.1704   29.7842    2.1456 H         1 UNK         0.2987 
    111 H111       27.5403   32.6123    2.3115 H         1 UNK         0.0949 
    112 H112       29.8689   31.0649    1.0596 H         1 UNK         0.0806 
    113 H113       28.4529   31.6966    0.2308 H         1 UNK         0.0806 
    114 H114       29.6425   32.8029    0.9024 H         1 UNK         0.0806 
    115 H115       28.4395   34.1508    3.6045 H         1 UNK         0.3010 
    116 H116       29.8244   33.3613    5.9823 H         1 UNK         0.0829 
    117 H117       29.7438   35.8006    6.5075 H         1 UNK         0.0813 
    118 H118       29.2075   36.1537    4.8713 H         1 UNK         0.0813 
    119 H119       28.1824   35.2167    5.9592 H         1 UNK         0.0813 
    120 H120       30.8967   34.9500    2.9881 H         1 UNK         0.3038 
    121 H121       33.6909   35.2235    3.9730 H         1 UNK         0.0769 
    122 H122       32.3319   36.2559    1.4255 H         1 UNK         0.0811 
    123 H123       33.9820   36.5956    1.9300 H         1 UNK         0.0811 
    124 H124       32.6380   37.2013    2.8823 H         1 UNK         0.0811 
    125 H125       33.2610   32.6464    3.9782 H         1 UNK         0.3204 
    126 H126       34.8014   31.5230    1.8233 H         1 UNK         0.0748 
    127 H127       32.4539   31.5849    0.7866 H         1 UNK         0.0771 
    128 H128       33.0638   29.9572    0.9814 H         1 UNK         0.0771 
    129 H129       31.8906   30.5893    2.1269 H         1 UNK         0.0771 
    130 H130       34.1984   28.8821    2.2356 H         1 UNK         0.2980 
    131 H131       35.4957   28.2234    4.6742 H         1 UNK         0.0545 
    132 H132       32.9914   26.7183    6.7875 H         1 UNK         0.3459 
    133 H133       34.6230   26.4614    6.2258 H         1 UNK         0.3459 
    134 H134       35.9190   26.8311    2.7820 H         1 UNK         0.0616 
    135 H135       35.0397   25.8319    3.8970 H         1 UNK         0.0616 
    136 H136       33.9535   24.4473    0.5208 H         1 UNK         0.0634 
    137 H137       35.1006   24.3614    1.8332 H         1 UNK         0.0634 
@<TRIPOS>BOND
     1    1    2 1    
     2    1   72 1    
     3    1   73 1    
     4    1   74 1    
     5    2    3 2    
     6    2    4 am   BACKBONE|DICT|INTERRES
     7    4    5 1    
     8    4   75 1    
     9    5    6 1    
    10    5   35 1    
    11    5   76 1    
    12    6    7 1    
    13    6   77 1    
    14    6   78 1    
    15    7    8 1    
    16    8    9 1    
    17    8   79 1    
    18    8   80 1    
    19    9   10 ar   
    20    9   14 ar   
    21   10   11 ar   
    22   10   81 1    
    23   11   12 ar   
    24   11   71 1    
    25   12   13 ar   
    26   12   82 1    
    27   13   14 ar   
    28   13   15 1    
    29   14   83 1    
    30   15   16 1    
    31   15   84 1    
    32   15   85 1    
    33   16   17 1    
    34   17   18 1    
    35   17   86 1    
    36   17   87 1    
    37   18   19 1    
    38   18   37 1    
    39   18   88 1    
    40   19   20 am   BACKBONE|DICT|INTERRES
    41   19   89 1    
    42   20   21 2    
    43   20   22 1    
    44   22   23 1    
    45   22   24 1    
    46   22   90 1    
    47   23   91 1    
    48   23   92 1    
    49   23   93 1    
    50   24   25 am   BACKBONE|DICT|INTERRES
    51   24   94 1    
    52   25   26 2    
    53   25   27 1    
    54   27   28 1    
    55   27   29 1    
    56   27   95 1    
    57   28   96 1    
    58   28   97 1    
    59   28   98 1    
    60   29   30 am   BACKBONE|DICT|INTERRES
    61   29   99 1    
    62   30   31 2    
    63   30   32 1    
    64   32   33 1    
    65   32   34 1    
    66   32  100 1    
    67   33  101 1    
    68   33  102 1    
    69   33  103 1    
    70   34   35 am   BACKBONE|DICT|INTERRES
    71   34  104 1    
    72   35   36 2    
    73   37   38 2    
    74   37   39 am   BACKBONE|DICT|INTERRES
    75   39   40 1    
    76   39  105 1    
    77   40   41 1    
    78   40   42 1    
    79   40  106 1    
    80   41  107 1    
    81   41  108 1    
    82   41  109 1    
    83   42   43 2    
    84   42   44 am   BACKBONE|DICT|INTERRES
    85   44   45 1    
    86   44  110 1    
    87   45   46 1    
    88   45   47 1    
    89   45  111 1    
    90   46  112 1    
    91   46  113 1    
    92   46  114 1    
    93   47   48 2    
    94   47   49 am   BACKBONE|DICT|INTERRES
    95   49   50 1    
    96   49  115 1    
    97   50   51 1    
    98   50   52 1    
    99   50  116 1    
   100   51  117 1    
   101   51  118 1    
   102   51  119 1    
   103   52   53 2    
   104   52   54 am   BACKBONE|DICT|INTERRES
   105   54   55 1    
   106   54  120 1    
   107   55   56 1    
   108   55   57 1    
   109   55  121 1    
   110   56  122 1    
   111   56  123 1    
   112   56  124 1    
   113   57   58 2    
   114   57   59 am   BACKBONE|DICT|INTERRES
   115   59   60 1    
   116   59  125 1    
   117   60   61 1    
   118   60   62 1    
   119   60  126 1    
   120   61  127 1    
   121   61  128 1    
   122   61  129 1    
   123   62   63 2    
   124   62   64 am   BACKBONE|DICT|INTERRES
   125   64   65 1    
   126   64  130 1    
   127   65   66 1    
   128   65   69 1    
   129   65  131 1    
   130   66   67 am   BACKBONE|DICT|INTERRES
   131   66   68 2    
   132   67  132 1    
   133   67  133 1    
   134   69   70 1    
   135   69  134 1    
   136   69  135 1    
   137   70   71 1    
   138   71  136 1    
   139   71  137 1    
@<TRIPOS>SUBSTRUCTURE
     1 UNK         1 GROUP             0       ****    0 ROOT    
