@<TRIPOS>MOLECULE
3R136
137   139    1
SMALL
USER_CHARGES


@<TRIPOS>ATOM
      1 CA         29.9136   20.5494   -2.4538 C.3       0 UNK        -0.1979 
      2 C          29.4389   21.5307   -1.3936 C.2       0 UNK         0.4864 
      3 O          29.4491   22.7397   -1.6276 O.2       0 UNK        -0.5359 
      4 N          29.0067   21.0271   -0.2295 N.am      1 UNK        -0.4318 
      5 CA         28.5336   21.8087    0.9215 C.3       1 UNK         0.0824 
      6 C6         28.7736   21.0428    2.2515 C.3       12 UNK        -0.0944 
      7 S7         29.1134   22.1510    3.6653 S.3       12 UNK        -0.2672 
      8 C8         30.8913   21.8784    3.9780 C.3       12 UNK         0.0333 
      9 C9         31.7757   22.9399    3.3323 C.ar      12 UNK        -0.0807 
     10 C10        32.5980   23.7439    4.1287 C.ar      12 UNK        -0.0894 
     11 C11        33.4560   24.6845    3.5493 C.ar      12 UNK        -0.0804 
     12 C12        33.4593   24.8422    2.1585 C.ar      12 UNK        -0.0824 
     13 C13        32.6452   24.0435    1.3473 C.ar      12 UNK        -0.0762 
     14 C14        31.8236   23.0821    1.9422 C.ar      12 UNK        -0.0782 
     15 C15        32.7162   24.1499   -0.1729 C.3       12 UNK         0.0230 
     16 S16        32.3336   25.8148   -0.8083 S.3       12 UNK        -0.2608 
     17 C17        30.5135   25.8930   -0.6812 C.3       12 UNK        -0.0989 
     18 CA         30.0432   27.2394   -0.0694 C.3       5 UNK         0.0716 
     19 N          28.7290   27.6497   -0.5709 N.am      5 UNK        -0.4135 
     20 C          28.4076   28.9028   -0.9248 C.2       4 UNK         0.5031 
     21 O          29.2035   29.8421   -0.9285 O.2       4 UNK        -0.5229 
     22 CA         26.9531   29.1720   -1.3590 C.3       4 UNK         0.0329 
     23 CB         26.8247   29.0737   -2.8879 C.3       4 UNK        -0.2001 
     24 N          25.9657   28.2873   -0.7370 N.am      4 UNK        -0.4303 
     25 C          25.6932   28.2436    0.5747 C.2       3 UNK         0.5044 
     26 O          26.2296   28.9678    1.4111 O.2       3 UNK        -0.5152 
     27 CA         24.6943   27.1677    1.0406 C.3       3 UNK         0.0319 
     28 CB         23.2589   27.7148    0.9930 C.3       3 UNK        -0.2001 
     29 N          24.7584   25.8981    0.3009 N.am      3 UNK        -0.4354 
     30 C          25.8681   25.1783    0.0844 C.2       2 UNK         0.4964 
     31 O          27.0008   25.5523    0.4026 O.2       2 UNK        -0.5047 
     32 CA         25.6964   23.8441   -0.6565 C.3       2 UNK         0.0288 
     33 CB         25.5783   24.0821   -2.1708 C.3       2 UNK        -0.2113 
     34 N          26.8593   22.9972   -0.4046 N.am      2 UNK        -0.4145 
     35 C          27.0891   22.3252    0.7297 C.2       1 UNK         0.5006 
     36 O          26.2272   22.1309    1.5897 O.2       1 UNK        -0.5103 
     37 C          30.0427   27.1871    1.4675 C.2       5 UNK         0.5055 
     38 O          31.0180   27.6135    2.0784 O.2       5 UNK        -0.5220 
     39 N          28.9570   26.6706    2.0614 N.am      6 UNK        -0.4450 
     40 CA         28.8123   26.4448    3.5008 C.3       6 UNK         0.0367 
     41 CB         27.5621   25.5844    3.7434 C.3       6 UNK        -0.1929 
     42 C          28.7434   27.7285    4.3481 C.2       6 UNK         0.5070 
     43 O          29.0651   27.6717    5.5359 O.2       6 UNK        -0.5237 
     44 N          28.3019   28.8476    3.7541 N.am      7 UNK        -0.4739 
     45 CA         28.2242   30.1598    4.4028 C.3       7 UNK         0.0276 
     46 CB         27.5421   31.1587    3.4545 C.3       7 UNK        -0.1927 
     47 C          29.6052   30.6926    4.8166 C.2       7 UNK         0.5013 
     48 O          30.5753   30.5171    4.0761 O.2       7 UNK        -0.5193 
     49 N          29.6537   31.3935    5.9584 N.am      8 UNK        -0.4253 
     50 CA         30.8668   31.9493    6.5756 C.3       8 UNK         0.0242 
     51 CB         30.4955   32.5934    7.9214 C.3       8 UNK        -0.2000 
     52 C          31.6533   32.9470    5.7032 C.2       8 UNK         0.4948 
     53 O          32.8445   33.1444    5.9417 O.2       8 UNK        -0.5275 
     54 N          30.9898   33.5423    4.7021 N.am      9 UNK        -0.4246 
     55 CA         31.6063   34.3821    3.6731 C.3       9 UNK         0.0261 
     56 CB         30.5008   35.0992    2.8809 C.3       9 UNK        -0.1959 
     57 C          32.5314   33.6013    2.7180 C.2       9 UNK         0.5033 
     58 O          33.4414   34.2068    2.1495 O.2       9 UNK        -0.5390 
     59 N          32.2873   32.2935    2.5542 N.am      10 UNK        -0.4215 
     60 CA         33.0951   31.3832    1.7441 C.3       10 UNK         0.0240 
     61 CB         32.1804   30.5932    0.7937 C.3       10 UNK        -0.1982 
     62 C          33.9086   30.4480    2.6488 C.2       10 UNK         0.4970 
     63 O          35.1299   30.3810    2.5006 O.2       10 UNK        -0.4916 
     64 N          33.2335   29.7679    3.5836 N.am      11 UNK        -0.4279 
     65 CA         33.8380   28.8960    4.5960 C.3       11 UNK         0.1003 
     66 C          34.3602   29.7236    5.8029 C.2       11 UNK         0.5709 
     67 N          35.4400   30.4721    5.6197 N.am      11 UNK        -0.7358 
     68 O          33.8002   29.6995    6.8963 O.2       11 UNK        -0.4999 
     69 C69        32.8747   27.7376    4.9731 C.3       12 UNK        -0.0954 
     70 S70        33.7013   26.3491    5.8129 S.3       12 UNK        -0.2268 
     71 C71        34.4520   25.4578    4.4090 C.3       12 UNK         0.0203 
     72 H72        29.8528   19.5168   -2.1108 H         1 UNK         0.0888 
     73 H73        29.3050   20.6459   -3.3525 H         1 UNK         0.0888 
     74 H74        30.9495   20.7586   -2.7193 H         1 UNK         0.0888 
     75 H75        28.9774   20.0238   -0.1131 H         1 UNK         0.3017 
     76 H76        29.1304   22.7212    0.9554 H         1 UNK         0.0873 
     77 H77        27.9295   20.3970    2.5005 H         1 UNK         0.0745 
     78 H78        29.6198   20.3635    2.1432 H         1 UNK         0.0745 
     79 H79        31.0372   21.8782    5.0592 H         1 UNK         0.0705 
     80 H80        31.2012   20.8890    3.6407 H         1 UNK         0.0705 
     81 H81        32.5997   23.6157    5.2026 H         1 UNK         0.1334 
     82 H82        34.1230   25.5616    1.6984 H         1 UNK         0.1417 
     83 H83        31.2416   22.4216    1.3192 H         1 UNK         0.1562 
     84 H84        32.0525   23.4280   -0.6517 H         1 UNK         0.0748 
     85 H85        33.7266   23.8859   -0.4879 H         1 UNK         0.0748 
     86 H86        30.1262   25.0347   -0.1274 H         1 UNK         0.0940 
     87 H87        30.1253   25.7830   -1.6952 H         1 UNK         0.0940 
     88 H88        30.7683   28.0045   -0.3560 H         1 UNK         0.0703 
     89 H89        27.9986   26.9464   -0.5383 H         1 UNK         0.3081 
     90 H90        26.7112   30.1947   -1.0615 H         1 UNK         0.0719 
     91 H91        27.5304   29.7431   -3.3822 H         1 UNK         0.0809 
     92 H92        27.0280   28.0639   -3.2467 H         1 UNK         0.0809 
     93 H93        25.8262   29.3559   -3.2222 H         1 UNK         0.0809 
     94 H94        25.4772   27.6469   -1.3455 H         1 UNK         0.2990 
     95 H95        24.9315   26.9420    2.0814 H         1 UNK         0.0690 
     96 H96        23.1782   28.6488    1.5513 H         1 UNK         0.0788 
     97 H97        22.5511   27.0141    1.4364 H         1 UNK         0.0788 
     98 H98        22.9370   27.9173   -0.0294 H         1 UNK         0.0788 
     99 H99        23.8754   25.5253   -0.0184 H         1 UNK         0.2993 
    100 H100       24.7967   23.3432   -0.2924 H         1 UNK         0.0949 
    101 H101       25.4747   23.1407   -2.7110 H         1 UNK         0.0767 
    102 H102       24.7029   24.6878   -2.4087 H         1 UNK         0.0767 
    103 H103       26.4530   24.5997   -2.5680 H         1 UNK         0.0767 
    104 H104       27.6536   23.1185   -1.0272 H         1 UNK         0.3013 
    105 H105       28.2024   26.3184    1.4755 H         1 UNK         0.3121 
    106 H106       29.6873   25.8799    3.8313 H         1 UNK         0.0774 
    107 H107       27.4873   25.2938    4.7920 H         1 UNK         0.0815 
    108 H108       26.6495   26.1218    3.4869 H         1 UNK         0.0815 
    109 H109       27.5852   24.6682    3.1537 H         1 UNK         0.0815 
    110 H110       28.0174   28.8024    2.7836 H         1 UNK         0.2987 
    111 H111       27.6090   30.0498    5.2984 H         1 UNK         0.0949 
    112 H112       27.5046   32.1581    3.8898 H         1 UNK         0.0806 
    113 H113       28.0698   31.2345    2.5024 H         1 UNK         0.0806 
    114 H114       26.5138   30.8648    3.2452 H         1 UNK         0.0806 
    115 H115       28.7992   31.5098    6.4845 H         1 UNK         0.3010 
    116 H116       31.5350   31.1096    6.7736 H         1 UNK         0.0829 
    117 H117       29.7977   33.4220    7.7939 H         1 UNK         0.0813 
    118 H118       30.0406   31.8692    8.5975 H         1 UNK         0.0813 
    119 H119       31.3807   32.9873    8.4231 H         1 UNK         0.0813 
    120 H120       30.0069   33.3385    4.5969 H         1 UNK         0.3038 
    121 H121       32.2149   35.1378    4.1745 H         1 UNK         0.0769 
    122 H122       29.8475   34.3926    2.3672 H         1 UNK         0.0811 
    123 H123       30.9290   35.7566    2.1228 H         1 UNK         0.0811 
    124 H124       29.8829   35.7185    3.5315 H         1 UNK         0.0811 
    125 H125       31.5478   31.8602    3.1011 H         1 UNK         0.3204 
    126 H126       33.8048   31.9423    1.1307 H         1 UNK         0.0748 
    127 H127       32.7336   29.8166    0.2636 H         1 UNK         0.0771 
    128 H128       31.3637   30.1078    1.3283 H         1 UNK         0.0771 
    129 H129       31.7353   31.2459    0.0426 H         1 UNK         0.0771 
    130 H130       32.2269   29.8988    3.6626 H         1 UNK         0.2980 
    131 H131       34.7164   28.4344    4.1427 H         1 UNK         0.0545 
    132 H132       35.7932   31.0280    6.3821 H         1 UNK         0.3459 
    133 H133       35.8700   30.5237    4.7071 H         1 UNK         0.3459 
    134 H134       32.4116   27.3279    4.0789 H         1 UNK         0.0616 
    135 H135       32.0519   28.0973    5.5937 H         1 UNK         0.0616 
    136 H136       35.0256   26.1592    3.8023 H         1 UNK         0.0634 
    137 H137       35.1759   24.7468    4.8088 H         1 UNK         0.0634 
@<TRIPOS>BOND
     1    1    2 1    
     2    1   72 1    
     3    1   73 1    
     4    1   74 1    
     5    2    3 2    
     6    2    4 am   BACKBONE|DICT|INTERRES
     7    4    5 1    
     8    4   75 1    
     9    5    6 1    
    10    5   35 1    
    11    5   76 1    
    12    6    7 1    
    13    6   77 1    
    14    6   78 1    
    15    7    8 1    
    16    8    9 1    
    17    8   79 1    
    18    8   80 1    
    19    9   10 ar   
    20    9   14 ar   
    21   10   11 ar   
    22   10   81 1    
    23   11   12 ar   
    24   11   71 1    
    25   12   13 ar   
    26   12   82 1    
    27   13   14 ar   
    28   13   15 1    
    29   14   83 1    
    30   15   16 1    
    31   15   84 1    
    32   15   85 1    
    33   16   17 1    
    34   17   18 1    
    35   17   86 1    
    36   17   87 1    
    37   18   19 1    
    38   18   37 1    
    39   18   88 1    
    40   19   20 am   BACKBONE|DICT|INTERRES
    41   19   89 1    
    42   20   21 2    
    43   20   22 1    
    44   22   23 1    
    45   22   24 1    
    46   22   90 1    
    47   23   91 1    
    48   23   92 1    
    49   23   93 1    
    50   24   25 am   BACKBONE|DICT|INTERRES
    51   24   94 1    
    52   25   26 2    
    53   25   27 1    
    54   27   28 1    
    55   27   29 1    
    56   27   95 1    
    57   28   96 1    
    58   28   97 1    
    59   28   98 1    
    60   29   30 am   BACKBONE|DICT|INTERRES
    61   29   99 1    
    62   30   31 2    
    63   30   32 1    
    64   32   33 1    
    65   32   34 1    
    66   32  100 1    
    67   33  101 1    
    68   33  102 1    
    69   33  103 1    
    70   34   35 am   BACKBONE|DICT|INTERRES
    71   34  104 1    
    72   35   36 2    
    73   37   38 2    
    74   37   39 am   BACKBONE|DICT|INTERRES
    75   39   40 1    
    76   39  105 1    
    77   40   41 1    
    78   40   42 1    
    79   40  106 1    
    80   41  107 1    
    81   41  108 1    
    82   41  109 1    
    83   42   43 2    
    84   42   44 am   BACKBONE|DICT|INTERRES
    85   44   45 1    
    86   44  110 1    
    87   45   46 1    
    88   45   47 1    
    89   45  111 1    
    90   46  112 1    
    91   46  113 1    
    92   46  114 1    
    93   47   48 2    
    94   47   49 am   BACKBONE|DICT|INTERRES
    95   49   50 1    
    96   49  115 1    
    97   50   51 1    
    98   50   52 1    
    99   50  116 1    
   100   51  117 1    
   101   51  118 1    
   102   51  119 1    
   103   52   53 2    
   104   52   54 am   BACKBONE|DICT|INTERRES
   105   54   55 1    
   106   54  120 1    
   107   55   56 1    
   108   55   57 1    
   109   55  121 1    
   110   56  122 1    
   111   56  123 1    
   112   56  124 1    
   113   57   58 2    
   114   57   59 am   BACKBONE|DICT|INTERRES
   115   59   60 1    
   116   59  125 1    
   117   60   61 1    
   118   60   62 1    
   119   60  126 1    
   120   61  127 1    
   121   61  128 1    
   122   61  129 1    
   123   62   63 2    
   124   62   64 am   BACKBONE|DICT|INTERRES
   125   64   65 1    
   126   64  130 1    
   127   65   66 1    
   128   65   69 1    
   129   65  131 1    
   130   66   67 am   BACKBONE|DICT|INTERRES
   131   66   68 2    
   132   67  132 1    
   133   67  133 1    
   134   69   70 1    
   135   69  134 1    
   136   69  135 1    
   137   70   71 1    
   138   71  136 1    
   139   71  137 1    
@<TRIPOS>SUBSTRUCTURE
     1 UNK         1 GROUP             0       ****    0 ROOT    
