@<TRIPOS>MOLECULE
3R136
137   139    1
SMALL
USER_CHARGES


@<TRIPOS>ATOM
      1 CA         28.0355   19.5868   -2.1157 C.3       0 UNK        -0.1979 
      2 C          29.2888   20.0328   -1.3765 C.2       0 UNK         0.4864 
      3 O          30.3542   19.4447   -1.5719 O.2       0 UNK        -0.5359 
      4 N          29.1659   21.0601   -0.5258 N.am      1 UNK        -0.4318 
      5 CA         30.2733   21.6715    0.2169 C.3       1 UNK         0.0824 
      6 C6         29.7759   22.3012    1.5472 C.3       12 UNK        -0.0944 
      7 S7         31.0479   22.2179    2.8527 S.3       12 UNK        -0.2672 
      8 C8         30.0601   21.7730    4.3179 C.3       12 UNK         0.0333 
      9 C9         29.2462   22.9557    4.8223 C.ar      12 UNK        -0.0807 
     10 C10        29.8985   24.0472    5.3989 C.ar      12 UNK        -0.0894 
     11 C11        29.1784   25.1622    5.8330 C.ar      12 UNK        -0.0804 
     12 C12        27.7833   25.1522    5.7522 C.ar      12 UNK        -0.0824 
     13 C13        27.1158   24.0640    5.1791 C.ar      12 UNK        -0.0762 
     14 C14        27.8528   22.9702    4.7111 C.ar      12 UNK        -0.0782 
     15 C15        25.5998   24.0683    5.0520 C.3       12 UNK         0.0230 
     16 S16        25.0640   24.7442    3.4471 S.3       12 UNK        -0.2608 
     17 C17        25.1781   26.5449    3.7340 C.3       12 UNK        -0.0989 
     18 CA         26.4778   27.1791    3.1643 C.3       5 UNK         0.0716 
     19 N          26.6865   26.9092    1.7370 N.am      5 UNK        -0.4135 
     20 C          25.9537   27.3264    0.6983 C.2       4 UNK         0.5031 
     21 O          24.9714   28.0628    0.8044 O.2       4 UNK        -0.5229 
     22 CA         26.4230   26.8520   -0.6955 C.3       4 UNK         0.0329 
     23 CB         25.5601   27.4265   -1.8351 C.3       4 UNK        -0.2001 
     24 N          27.8352   27.1497   -0.9775 N.am      4 UNK        -0.4303 
     25 C          28.8905   26.5295   -0.4340 C.2       3 UNK         0.5044 
     26 O          28.7984   25.6650    0.4431 O.2       3 UNK        -0.5152 
     27 CA         30.2772   26.9528   -0.9299 C.3       3 UNK         0.0319 
     28 CB         30.7080   28.3049   -0.3362 C.3       3 UNK        -0.2001 
     29 N          31.2108   25.9049   -0.5379 N.am      3 UNK        -0.4354 
     30 C          32.3145   25.5419   -1.1974 C.2       2 UNK         0.4964 
     31 O          32.7809   26.1655   -2.1515 O.2       2 UNK        -0.5047 
     32 CA         33.0074   24.2453   -0.7323 C.3       2 UNK         0.0288 
     33 CB         34.1627   24.5751    0.2277 C.3       2 UNK        -0.2113 
     34 N          32.1157   23.2653   -0.0937 N.am      2 UNK        -0.4145 
     35 C          31.0503   22.6806   -0.6633 C.2       1 UNK         0.5006 
     36 O          30.6800   22.9210   -1.8163 O.2       1 UNK        -0.5103 
     37 C          26.6151   28.6728    3.5441 C.2       5 UNK         0.5055 
     38 O          26.1458   29.0749    4.6109 O.2       5 UNK        -0.5220 
     39 N          27.2630   29.4708    2.6859 N.am      6 UNK        -0.4450 
     40 CA         27.5316   30.8858    2.9089 C.3       6 UNK         0.0367 
     41 CB         27.4742   31.6305    1.5645 C.3       6 UNK        -0.1929 
     42 C          28.9047   31.0327    3.5702 C.2       6 UNK         0.5070 
     43 O          29.9212   30.7666    2.9252 O.2       6 UNK        -0.5237 
     44 N          28.9202   31.4755    4.8340 N.am      7 UNK        -0.4739 
     45 CA         30.1417   31.7202    5.6103 C.3       7 UNK         0.0276 
     46 CB         29.7722   32.0618    7.0618 C.3       7 UNK        -0.1927 
     47 C          31.0308   32.8170    5.0003 C.2       7 UNK         0.5013 
     48 O          32.2545   32.6944    5.0363 O.2       7 UNK        -0.5193 
     49 N          30.4002   33.8278    4.3842 N.am      8 UNK        -0.4253 
     50 CA         31.0569   34.8999    3.6290 C.3       8 UNK         0.0242 
     51 CB         30.0133   35.9657    3.2572 C.3       8 UNK        -0.2000 
     52 C          31.7971   34.4112    2.3683 C.2       8 UNK         0.4948 
     53 O          32.7357   35.0776    1.9315 O.2       8 UNK        -0.5275 
     54 N          31.3826   33.2594    1.8211 N.am      9 UNK        -0.4246 
     55 CA         32.0347   32.5787    0.7004 C.3       9 UNK         0.0261 
     56 CB         30.9515   31.9754   -0.2076 C.3       9 UNK        -0.1959 
     57 C          33.0253   31.4948    1.1707 C.2       9 UNK         0.5033 
     58 O          33.6076   30.8205    0.3204 O.2       9 UNK        -0.5390 
     59 N          33.2055   31.3507    2.4940 N.am      10 UNK        -0.4215 
     60 CA         34.0811   30.4012    3.1834 C.3       10 UNK         0.0240 
     61 CB         35.5661   30.7119    2.8936 C.3       10 UNK        -0.1982 
     62 C          33.7019   28.9344    2.9116 C.2       10 UNK         0.4970 
     63 O          34.5288   28.1682    2.4115 O.2       10 UNK        -0.4916 
     64 N          32.4617   28.5650    3.2651 N.am      11 UNK        -0.4279 
     65 CA         32.0010   27.1675    3.3037 C.3       11 UNK         0.1003 
     66 C          32.8479   26.2605    4.2455 C.2       11 UNK         0.5709 
     67 N          32.9350   24.9701    3.9548 N.am      11 UNK        -0.7358 
     68 O          33.4067   26.7077    5.2460 O.2       11 UNK        -0.4999 
     69 C69        30.4794   27.0579    3.5961 C.3       12 UNK        -0.0954 
     70 S70        29.9176   27.7827    5.1827 S.3       12 UNK        -0.2268 
     71 C71        29.9205   26.3829    6.3586 C.3       12 UNK         0.0203 
     72 H72        27.8199   18.5421   -1.8932 H         1 UNK         0.0888 
     73 H73        27.1643   20.1793   -1.8365 H         1 UNK         0.0888 
     74 H74        28.1806   19.6839   -3.1913 H         1 UNK         0.0888 
     75 H75        28.2739   21.5258   -0.4408 H         1 UNK         0.3017 
     76 H76        30.9742   20.8697    0.4612 H         1 UNK         0.0873 
     77 H77        29.4501   23.3345    1.4204 H         1 UNK         0.0745 
     78 H78        28.8974   21.7628    1.9065 H         1 UNK         0.0745 
     79 H79        29.4209   20.9186    4.0899 H         1 UNK         0.0705 
     80 H80        30.7361   21.4448    5.1088 H         1 UNK         0.0705 
     81 H81        30.9758   24.0384    5.4783 H         1 UNK         0.1334 
     82 H82        27.2223   26.0093    6.0991 H         1 UNK         0.1417 
     83 H83        27.3399   22.1327    4.2579 H         1 UNK         0.1562 
     84 H84        25.1442   24.6279    5.8703 H         1 UNK         0.0748 
     85 H85        25.2229   23.0484    5.1421 H         1 UNK         0.0748 
     86 H86        25.0910   26.7323    4.8055 H         1 UNK         0.0940 
     87 H87        24.3026   27.0146    3.2823 H         1 UNK         0.0940 
     88 H88        27.3231   26.6978    3.6519 H         1 UNK         0.0703 
     89 H89        27.4807   26.3118    1.5133 H         1 UNK         0.3081 
     90 H90        26.3003   25.7667   -0.7087 H         1 UNK         0.0719 
     91 H91        25.6319   28.5137   -1.8869 H         1 UNK         0.0809 
     92 H92        25.8585   27.0226   -2.8028 H         1 UNK         0.0809 
     93 H93        24.5077   27.1754   -1.6949 H         1 UNK         0.0809 
     94 H94        28.0053   27.8687   -1.6664 H         1 UNK         0.2990 
     95 H95        30.2449   27.0211   -2.0194 H         1 UNK         0.0690 
     96 H96        31.7065   28.5873   -0.6714 H         1 UNK         0.0788 
     97 H97        30.7177   28.2931    0.7527 H         1 UNK         0.0788 
     98 H98        30.0272   29.0961   -0.6492 H         1 UNK         0.0788 
     99 H99        30.8518   25.3017    0.1917 H         1 UNK         0.2993 
    100 H100       33.4253   23.7701   -1.6223 H         1 UNK         0.0949 
    101 H101       34.7175   23.6795    0.5081 H         1 UNK         0.0767 
    102 H102       34.8724   25.2604   -0.2384 H         1 UNK         0.0767 
    103 H103       33.8074   25.0525    1.1413 H         1 UNK         0.0767 
    104 H104       32.3383   23.0035    0.8573 H         1 UNK         0.3013 
    105 H105       27.6626   29.0613    1.8554 H         1 UNK         0.3121 
    106 H106       26.7689   31.3176    3.5608 H         1 UNK         0.0774 
    107 H107       27.7540   32.6783    1.6816 H         1 UNK         0.0815 
    108 H108       28.1437   31.1916    0.8256 H         1 UNK         0.0815 
    109 H109       26.4668   31.6089    1.1485 H         1 UNK         0.0815 
    110 H110       28.0407   31.6402    5.3037 H         1 UNK         0.2987 
    111 H111       30.7232   30.7956    5.6148 H         1 UNK         0.0949 
    112 H112       29.1630   32.9642    7.1247 H         1 UNK         0.0806 
    113 H113       29.2187   31.2480    7.5310 H         1 UNK         0.0806 
    114 H114       30.6675   32.2298    7.6624 H         1 UNK         0.0806 
    115 H115       29.3908   33.8395    4.4082 H         1 UNK         0.3010 
    116 H116       31.8005   35.3597    4.2837 H         1 UNK         0.0829 
    117 H117       29.5396   36.3855    4.1448 H         1 UNK         0.0813 
    118 H118       30.4764   36.7938    2.7184 H         1 UNK         0.0813 
    119 H119       29.2296   35.5588    2.6167 H         1 UNK         0.0813 
    120 H120       30.6303   32.7468    2.2648 H         1 UNK         0.3038 
    121 H121       32.6038   33.2998    0.1100 H         1 UNK         0.0769 
    122 H122       30.3928   31.1992    0.3121 H         1 UNK         0.0811 
    123 H123       31.3912   31.5210   -1.0964 H         1 UNK         0.0811 
    124 H124       30.2449   32.7332   -0.5460 H         1 UNK         0.0811 
    125 H125       32.6795   31.9588    3.1110 H         1 UNK         0.3204 
    126 H126       33.9223   30.5616    4.2509 H         1 UNK         0.0748 
    127 H127       36.2202   30.0685    3.4834 H         1 UNK         0.0771 
    128 H128       35.8190   30.5562    1.8444 H         1 UNK         0.0771 
    129 H129       35.8114   31.7430    3.1481 H         1 UNK         0.0771 
    130 H130       31.8186   29.2538    3.6295 H         1 UNK         0.2980 
    131 H131       32.1533   26.7835    2.2931 H         1 UNK         0.0545 
    132 H132       32.4407   24.5689    3.1755 H         1 UNK         0.3459 
    133 H133       33.4854   24.3765    4.5544 H         1 UNK         0.3459 
    134 H134       30.1485   26.0237    3.5074 H         1 UNK         0.0616 
    135 H135       29.9321   27.5842    2.8141 H         1 UNK         0.0616 
    136 H136       29.4599   26.7105    7.2914 H         1 UNK         0.0634 
    137 H137       30.9523   26.1295    6.6051 H         1 UNK         0.0634 
@<TRIPOS>BOND
     1    1    2 1    
     2    1   72 1    
     3    1   73 1    
     4    1   74 1    
     5    2    3 2    
     6    2    4 am   BACKBONE|DICT|INTERRES
     7    4    5 1    
     8    4   75 1    
     9    5    6 1    
    10    5   35 1    
    11    5   76 1    
    12    6    7 1    
    13    6   77 1    
    14    6   78 1    
    15    7    8 1    
    16    8    9 1    
    17    8   79 1    
    18    8   80 1    
    19    9   10 ar   
    20    9   14 ar   
    21   10   11 ar   
    22   10   81 1    
    23   11   12 ar   
    24   11   71 1    
    25   12   13 ar   
    26   12   82 1    
    27   13   14 ar   
    28   13   15 1    
    29   14   83 1    
    30   15   16 1    
    31   15   84 1    
    32   15   85 1    
    33   16   17 1    
    34   17   18 1    
    35   17   86 1    
    36   17   87 1    
    37   18   19 1    
    38   18   37 1    
    39   18   88 1    
    40   19   20 am   BACKBONE|DICT|INTERRES
    41   19   89 1    
    42   20   21 2    
    43   20   22 1    
    44   22   23 1    
    45   22   24 1    
    46   22   90 1    
    47   23   91 1    
    48   23   92 1    
    49   23   93 1    
    50   24   25 am   BACKBONE|DICT|INTERRES
    51   24   94 1    
    52   25   26 2    
    53   25   27 1    
    54   27   28 1    
    55   27   29 1    
    56   27   95 1    
    57   28   96 1    
    58   28   97 1    
    59   28   98 1    
    60   29   30 am   BACKBONE|DICT|INTERRES
    61   29   99 1    
    62   30   31 2    
    63   30   32 1    
    64   32   33 1    
    65   32   34 1    
    66   32  100 1    
    67   33  101 1    
    68   33  102 1    
    69   33  103 1    
    70   34   35 am   BACKBONE|DICT|INTERRES
    71   34  104 1    
    72   35   36 2    
    73   37   38 2    
    74   37   39 am   BACKBONE|DICT|INTERRES
    75   39   40 1    
    76   39  105 1    
    77   40   41 1    
    78   40   42 1    
    79   40  106 1    
    80   41  107 1    
    81   41  108 1    
    82   41  109 1    
    83   42   43 2    
    84   42   44 am   BACKBONE|DICT|INTERRES
    85   44   45 1    
    86   44  110 1    
    87   45   46 1    
    88   45   47 1    
    89   45  111 1    
    90   46  112 1    
    91   46  113 1    
    92   46  114 1    
    93   47   48 2    
    94   47   49 am   BACKBONE|DICT|INTERRES
    95   49   50 1    
    96   49  115 1    
    97   50   51 1    
    98   50   52 1    
    99   50  116 1    
   100   51  117 1    
   101   51  118 1    
   102   51  119 1    
   103   52   53 2    
   104   52   54 am   BACKBONE|DICT|INTERRES
   105   54   55 1    
   106   54  120 1    
   107   55   56 1    
   108   55   57 1    
   109   55  121 1    
   110   56  122 1    
   111   56  123 1    
   112   56  124 1    
   113   57   58 2    
   114   57   59 am   BACKBONE|DICT|INTERRES
   115   59   60 1    
   116   59  125 1    
   117   60   61 1    
   118   60   62 1    
   119   60  126 1    
   120   61  127 1    
   121   61  128 1    
   122   61  129 1    
   123   62   63 2    
   124   62   64 am   BACKBONE|DICT|INTERRES
   125   64   65 1    
   126   64  130 1    
   127   65   66 1    
   128   65   69 1    
   129   65  131 1    
   130   66   67 am   BACKBONE|DICT|INTERRES
   131   66   68 2    
   132   67  132 1    
   133   67  133 1    
   134   69   70 1    
   135   69  134 1    
   136   69  135 1    
   137   70   71 1    
   138   71  136 1    
   139   71  137 1    
@<TRIPOS>SUBSTRUCTURE
     1 UNK         1 GROUP             0       ****    0 ROOT    
