@<TRIPOS>MOLECULE
3R136
137   139    1
SMALL
USER_CHARGES


@<TRIPOS>ATOM
      1 CA         26.0227   23.8506    5.2370 C.3       0 UNK        -0.1979 
      2 C          26.7317   24.2151    3.9410 C.2       0 UNK         0.4864 
      3 O          26.9045   25.4007    3.6603 O.2       0 UNK        -0.5359 
      4 N          27.1500   23.2000    3.1701 N.am      1 UNK        -0.4318 
      5 CA         27.8021   23.3021    1.8530 C.3       1 UNK         0.0824 
      6 C6         29.1706   24.0398    1.8704 C.3       12 UNK        -0.0944 
      7 S7         30.3535   23.2417    3.0128 S.3       12 UNK        -0.2672 
      8 C8         31.8715   23.1390    2.0155 C.3       12 UNK         0.0333 
      9 C9         32.4763   24.5142    1.7779 C.ar      12 UNK        -0.0807 
     10 C10        33.1980   25.1532    2.7927 C.ar      12 UNK        -0.0894 
     11 C11        33.7367   26.4273    2.5851 C.ar      12 UNK        -0.0804 
     12 C12        33.5538   27.0538    1.3488 C.ar      12 UNK        -0.0824 
     13 C13        32.8449   26.4208    0.3258 C.ar      12 UNK        -0.0762 
     14 C14        32.3113   25.1486    0.5435 C.ar      12 UNK        -0.0782 
     15 C15        32.6573   27.1191   -1.0105 C.3       12 UNK         0.0230 
     16 S16        31.3022   28.3272   -0.9369 S.3       12 UNK        -0.2608 
     17 C17        29.8456   27.2361   -0.9804 C.3       12 UNK        -0.0989 
     18 CA         28.5251   28.0517   -0.9061 C.3       5 UNK         0.0716 
     19 N          27.4848   27.4971   -1.7673 N.am      5 UNK        -0.4135 
     20 C          27.3897   27.6976   -3.0858 C.2       4 UNK         0.5031 
     21 O          28.1894   28.3755   -3.7328 O.2       4 UNK        -0.5229 
     22 CA         26.2235   27.0226   -3.8290 C.3       4 UNK         0.0329 
     23 CB         26.7208   25.7716   -4.5726 C.3       4 UNK        -0.2001 
     24 N          25.1046   26.6421   -2.9653 N.am      4 UNK        -0.4303 
     25 C          24.2131   27.4876   -2.4270 C.2       3 UNK         0.5044 
     26 O          24.2503   28.7085   -2.5824 O.2       3 UNK        -0.5152 
     27 CA         23.0718   26.8668   -1.5974 C.3       3 UNK         0.0319 
     28 CB         21.7511   26.9120   -2.3842 C.3       3 UNK        -0.2001 
     29 N          23.3536   25.4777   -1.2204 N.am      3 UNK        -0.4354 
     30 C          24.0654   25.1155   -0.1451 C.2       2 UNK         0.4964 
     31 O          24.4076   25.9031    0.7370 O.2       2 UNK        -0.5047 
     32 CA         24.4313   23.6211   -0.0332 C.3       2 UNK         0.0288 
     33 CB         24.6888   22.9508   -1.4040 C.3       2 UNK        -0.2113 
     34 N          25.5614   23.3699    0.8709 N.am      2 UNK        -0.4145 
     35 C          26.8276   23.8110    0.7633 C.2       1 UNK         0.5006 
     36 O          27.2341   24.5356   -0.1495 O.2       1 UNK        -0.5103 
     37 C          27.9586   28.2190    0.5170 C.2       5 UNK         0.5055 
     38 O          26.7365   28.2130    0.6835 O.2       5 UNK        -0.5220 
     39 N          28.8351   28.3916    1.5134 N.am      6 UNK        -0.4450 
     40 CA         28.4656   28.5116    2.9204 C.3       6 UNK         0.0367 
     41 CB         28.1559   29.9797    3.2664 C.3       6 UNK        -0.1929 
     42 C          29.6083   27.9623    3.7766 C.2       6 UNK         0.5070 
     43 O          30.6954   28.5465    3.7670 O.2       6 UNK        -0.5237 
     44 N          29.3395   26.8626    4.4954 N.am      7 UNK        -0.4739 
     45 CA         30.2690   26.1799    5.4039 C.3       7 UNK         0.0276 
     46 CB         29.5392   25.0493    6.1468 C.3       7 UNK        -0.1927 
     47 C          30.9093   27.1327    6.4238 C.2       7 UNK         0.5013 
     48 O          30.1874   27.8633    7.1076 O.2       7 UNK        -0.5193 
     49 N          32.2477   27.1182    6.4808 N.am      8 UNK        -0.4253 
     50 CA         33.1450   27.9837    7.2598 C.3       8 UNK         0.0242 
     51 CB         32.9286   27.8120    8.7759 C.3       8 UNK        -0.2000 
     52 C          33.1019   29.4697    6.8569 C.2       8 UNK         0.4948 
     53 O          34.1611   30.0630    6.6615 O.2       8 UNK        -0.5275 
     54 N          31.8982   30.0396    6.7215 N.am      9 UNK        -0.4246 
     55 CA         31.6304   31.4442    6.4065 C.3       9 UNK         0.0261 
     56 CB         30.1130   31.6843    6.3974 C.3       9 UNK        -0.1959 
     57 C          32.2649   31.9237    5.0918 C.2       9 UNK         0.5033 
     58 O          32.8464   33.0096    5.0693 O.2       9 UNK        -0.5390 
     59 N          32.1866   31.1027    4.0343 N.am      10 UNK        -0.4215 
     60 CA         32.8053   31.3964    2.7370 C.3       10 UNK         0.0240 
     61 CB         32.1168   30.5618    1.6484 C.3       10 UNK        -0.1982 
     62 C          34.3331   31.1864    2.7135 C.2       10 UNK         0.4970 
     63 O          34.9732   31.6059    1.7485 O.2       10 UNK        -0.4916 
     64 N          34.8888   30.5560    3.7557 N.am      11 UNK        -0.4279 
     65 CA         36.3275   30.3184    3.9439 C.3       11 UNK         0.1003 
     66 C          37.0051   31.3859    4.8527 C.2       11 UNK         0.5709 
     67 N          36.2951   32.3886    5.3594 N.am      11 UNK        -0.7358 
     68 O          38.2106   31.3208    5.0824 O.2       11 UNK        -0.4999 
     69 C69        36.5972   28.8714    4.4434 C.3       12 UNK        -0.0954 
     70 S70        36.1683   27.6197    3.1884 S.3       12 UNK        -0.2268 
     71 C71        34.4845   27.1488    3.6976 C.3       12 UNK         0.0203 
     72 H72        26.0360   22.7768    5.4230 H         1 UNK         0.0888 
     73 H73        24.9837   24.1767    5.1977 H         1 UNK         0.0888 
     74 H74        26.5013   24.3451    6.0814 H         1 UNK         0.0888 
     75 H75        27.0039   22.2544    3.4960 H         1 UNK         0.3017 
     76 H76        28.0136   22.2725    1.5595 H         1 UNK         0.0873 
     77 H77        29.0536   25.0865    2.1538 H         1 UNK         0.0745 
     78 H78        29.6028   24.0452    0.8690 H         1 UNK         0.0745 
     79 H79        32.5945   22.5116    2.5388 H         1 UNK         0.0705 
     80 H80        31.6568   22.6345    1.0721 H         1 UNK         0.0705 
     81 H81        33.3253   24.6595    3.7462 H         1 UNK         0.1334 
     82 H82        33.9655   28.0401    1.1830 H         1 UNK         0.1417 
     83 H83        31.7596   24.6565   -0.2458 H         1 UNK         0.1562 
     84 H84        32.4685   26.3977   -1.8072 H         1 UNK         0.0748 
     85 H85        33.5774   27.6388   -1.2820 H         1 UNK         0.0748 
     86 H86        29.9020   26.4824   -0.1930 H         1 UNK         0.0940 
     87 H87        29.9003   26.6793   -1.9175 H         1 UNK         0.0940 
     88 H88        28.7089   29.0698   -1.2571 H         1 UNK         0.0703 
     89 H89        26.7688   26.9716   -1.2813 H         1 UNK         0.3081 
     90 H90        25.8539   27.7357   -4.5691 H         1 UNK         0.0719 
     91 H91        27.0939   25.0134   -3.8825 H         1 UNK         0.0809 
     92 H92        25.9279   25.3225   -5.1711 H         1 UNK         0.0809 
     93 H93        27.5358   26.0204   -5.2540 H         1 UNK         0.0809 
     94 H94        24.9981   25.6574   -2.7758 H         1 UNK         0.2990 
     95 H95        22.9518   27.4731   -0.6968 H         1 UNK         0.0690 
     96 H96        20.9239   26.5184   -1.7930 H         1 UNK         0.0788 
     97 H97        21.8092   26.3350   -3.3081 H         1 UNK         0.0788 
     98 H98        21.4937   27.9368   -2.6558 H         1 UNK         0.0788 
     99 H99        23.0585   24.7625   -1.8701 H         1 UNK         0.2993 
    100 H100       23.5670   23.1336    0.4208 H         1 UNK         0.0949 
    101 H101       23.7915   22.9358   -2.0233 H         1 UNK         0.0767 
    102 H102       25.4734   23.4594   -1.9656 H         1 UNK         0.0767 
    103 H103       24.9965   21.9123   -1.2794 H         1 UNK         0.0767 
    104 H104       25.3397   22.8176    1.6867 H         1 UNK         0.3013 
    105 H105       29.8291   28.3793    1.3187 H         1 UNK         0.3121 
    106 H106       27.5696   27.9173    3.1123 H         1 UNK         0.0774 
    107 H107       27.3330   30.3643    2.6639 H         1 UNK         0.0815 
    108 H108       29.0193   30.6261    3.1053 H         1 UNK         0.0815 
    109 H109       27.8614   30.0753    4.3118 H         1 UNK         0.0815 
    110 H110       28.4256   26.4321    4.3802 H         1 UNK         0.2987 
    111 H111       31.0521   25.7392    4.7844 H         1 UNK         0.0949 
    112 H112       28.6940   25.4279    6.7229 H         1 UNK         0.0806 
    113 H113       29.1681   24.2920    5.4597 H         1 UNK         0.0806 
    114 H114       30.2083   24.5430    6.8439 H         1 UNK         0.0806 
    115 H115       32.7210   26.4740    5.8646 H         1 UNK         0.3010 
    116 H116       34.1546   27.6339    7.0375 H         1 UNK         0.0829 
    117 H117       33.0335   26.7693    9.0753 H         1 UNK         0.0813 
    118 H118       33.6649   28.3865    9.3396 H         1 UNK         0.0813 
    119 H119       31.9428   28.1536    9.0926 H         1 UNK         0.0813 
    120 H120       31.0917   29.4385    6.8820 H         1 UNK         0.3038 
    121 H121       32.0636   32.0406    7.2119 H         1 UNK         0.0769 
    122 H122       29.6141   31.0606    5.6561 H         1 UNK         0.0811 
    123 H123       29.8807   32.7240    6.1626 H         1 UNK         0.0811 
    124 H124       29.6712   31.4652    7.3697 H         1 UNK         0.0811 
    125 H125       31.6906   30.2168    4.1159 H         1 UNK         0.3204 
    126 H126       32.6295   32.4487    2.5034 H         1 UNK         0.0748 
    127 H127       32.2172   29.4946    1.8395 H         1 UNK         0.0771 
    128 H128       31.0529   30.7899    1.5858 H         1 UNK         0.0771 
    129 H129       32.5477   30.7605    0.6662 H         1 UNK         0.0771 
    130 H130       34.3108   30.3121    4.5499 H         1 UNK         0.2980 
    131 H131       36.8295   30.4202    2.9802 H         1 UNK         0.0545 
    132 H132       36.7544   33.0729    5.9388 H         1 UNK         0.3459 
    133 H133       35.3021   32.4535    5.1920 H         1 UNK         0.3459 
    134 H134       37.6560   28.7344    4.6700 H         1 UNK         0.0616 
    135 H135       36.0619   28.6670    5.3715 H         1 UNK         0.0616 
    136 H136       33.9130   28.0346    3.9747 H         1 UNK         0.0634 
    137 H137       34.5555   26.5266    4.5902 H         1 UNK         0.0634 
@<TRIPOS>BOND
     1    1    2 1    
     2    1   72 1    
     3    1   73 1    
     4    1   74 1    
     5    2    3 2    
     6    2    4 am   BACKBONE|DICT|INTERRES
     7    4    5 1    
     8    4   75 1    
     9    5    6 1    
    10    5   35 1    
    11    5   76 1    
    12    6    7 1    
    13    6   77 1    
    14    6   78 1    
    15    7    8 1    
    16    8    9 1    
    17    8   79 1    
    18    8   80 1    
    19    9   10 ar   
    20    9   14 ar   
    21   10   11 ar   
    22   10   81 1    
    23   11   12 ar   
    24   11   71 1    
    25   12   13 ar   
    26   12   82 1    
    27   13   14 ar   
    28   13   15 1    
    29   14   83 1    
    30   15   16 1    
    31   15   84 1    
    32   15   85 1    
    33   16   17 1    
    34   17   18 1    
    35   17   86 1    
    36   17   87 1    
    37   18   19 1    
    38   18   37 1    
    39   18   88 1    
    40   19   20 am   BACKBONE|DICT|INTERRES
    41   19   89 1    
    42   20   21 2    
    43   20   22 1    
    44   22   23 1    
    45   22   24 1    
    46   22   90 1    
    47   23   91 1    
    48   23   92 1    
    49   23   93 1    
    50   24   25 am   BACKBONE|DICT|INTERRES
    51   24   94 1    
    52   25   26 2    
    53   25   27 1    
    54   27   28 1    
    55   27   29 1    
    56   27   95 1    
    57   28   96 1    
    58   28   97 1    
    59   28   98 1    
    60   29   30 am   BACKBONE|DICT|INTERRES
    61   29   99 1    
    62   30   31 2    
    63   30   32 1    
    64   32   33 1    
    65   32   34 1    
    66   32  100 1    
    67   33  101 1    
    68   33  102 1    
    69   33  103 1    
    70   34   35 am   BACKBONE|DICT|INTERRES
    71   34  104 1    
    72   35   36 2    
    73   37   38 2    
    74   37   39 am   BACKBONE|DICT|INTERRES
    75   39   40 1    
    76   39  105 1    
    77   40   41 1    
    78   40   42 1    
    79   40  106 1    
    80   41  107 1    
    81   41  108 1    
    82   41  109 1    
    83   42   43 2    
    84   42   44 am   BACKBONE|DICT|INTERRES
    85   44   45 1    
    86   44  110 1    
    87   45   46 1    
    88   45   47 1    
    89   45  111 1    
    90   46  112 1    
    91   46  113 1    
    92   46  114 1    
    93   47   48 2    
    94   47   49 am   BACKBONE|DICT|INTERRES
    95   49   50 1    
    96   49  115 1    
    97   50   51 1    
    98   50   52 1    
    99   50  116 1    
   100   51  117 1    
   101   51  118 1    
   102   51  119 1    
   103   52   53 2    
   104   52   54 am   BACKBONE|DICT|INTERRES
   105   54   55 1    
   106   54  120 1    
   107   55   56 1    
   108   55   57 1    
   109   55  121 1    
   110   56  122 1    
   111   56  123 1    
   112   56  124 1    
   113   57   58 2    
   114   57   59 am   BACKBONE|DICT|INTERRES
   115   59   60 1    
   116   59  125 1    
   117   60   61 1    
   118   60   62 1    
   119   60  126 1    
   120   61  127 1    
   121   61  128 1    
   122   61  129 1    
   123   62   63 2    
   124   62   64 am   BACKBONE|DICT|INTERRES
   125   64   65 1    
   126   64  130 1    
   127   65   66 1    
   128   65   69 1    
   129   65  131 1    
   130   66   67 am   BACKBONE|DICT|INTERRES
   131   66   68 2    
   132   67  132 1    
   133   67  133 1    
   134   69   70 1    
   135   69  134 1    
   136   69  135 1    
   137   70   71 1    
   138   71  136 1    
   139   71  137 1    
@<TRIPOS>SUBSTRUCTURE
     1 UNK         1 GROUP             0       ****    0 ROOT    
