@<TRIPOS>MOLECULE
3R136
137   139    1
SMALL
USER_CHARGES


@<TRIPOS>ATOM
      1 CA         28.8703   18.2145   -1.1362 C.3       0 UNK        -0.1979 
      2 C          28.8843   19.7022   -1.4548 C.2       0 UNK         0.4864 
      3 O          28.4108   20.1026   -2.5190 O.2       0 UNK        -0.5359 
      4 N          29.4272   20.5197   -0.5421 N.am      1 UNK        -0.4318 
      5 CA         29.5287   21.9804   -0.6678 C.3       1 UNK         0.0824 
      6 C6         30.4416   22.5880    0.4211 C.3       12 UNK        -0.0944 
      7 S7         32.1558   21.9677    0.3359 S.3       12 UNK        -0.2672 
      8 C8         32.5514   21.7161    2.0989 C.3       12 UNK         0.0333 
      9 C9         32.2725   22.9602    2.9330 C.ar      12 UNK        -0.0807 
     10 C10        32.9801   24.1407    2.6959 C.ar      12 UNK        -0.0894 
     11 C11        32.6874   25.3024    3.4161 C.ar      12 UNK        -0.0804 
     12 C12        31.7079   25.2635    4.4141 C.ar      12 UNK        -0.0824 
     13 C13        30.9945   24.0849    4.6686 C.ar      12 UNK        -0.0762 
     14 C14        31.2862   22.9383    3.9233 C.ar      12 UNK        -0.0782 
     15 C15        29.9249   24.0076    5.7573 C.3       12 UNK         0.0230 
     16 S16        28.8817   25.4965    5.9180 S.3       12 UNK        -0.2608 
     17 C17        28.0999   25.6290    4.2715 C.3       12 UNK        -0.0989 
     18 CA         28.5191   26.9213    3.5238 C.3       5 UNK         0.0716 
     19 N          28.3574   26.7773    2.0754 N.am      5 UNK        -0.4135 
     20 C          28.8597   27.6260    1.1646 C.2       4 UNK         0.5031 
     21 O          29.5412   28.6092    1.4538 O.2       4 UNK        -0.5229 
     22 CA         28.4883   27.3813   -0.3107 C.3       4 UNK         0.0329 
     23 CB         29.6047   26.6067   -1.0252 C.3       4 UNK        -0.2001 
     24 N          27.2084   26.6842   -0.4895 N.am      4 UNK        -0.4303 
     25 C          26.0267   27.1597   -0.0642 C.2       3 UNK         0.5044 
     26 O          25.8971   28.2563    0.4782 O.2       3 UNK        -0.5152 
     27 CA         24.7855   26.2613   -0.2059 C.3       3 UNK         0.0319 
     28 CB         23.9671   26.6739   -1.4395 C.3       3 UNK        -0.2001 
     29 N          25.0584   24.8229   -0.2699 N.am      3 UNK        -0.4354 
     30 C          25.7222   24.0934    0.6387 C.2       2 UNK         0.4964 
     31 O          26.2527   24.5659    1.6468 O.2       2 UNK        -0.5047 
     32 CA         25.8426   22.5807    0.3631 C.3       2 UNK         0.0288 
     33 CB         24.9932   22.0825   -0.8298 C.3       2 UNK        -0.2113 
     34 N          27.2350   22.1536    0.1902 N.am      2 UNK        -0.4145 
     35 C          28.1504   22.6735   -0.6451 C.2       1 UNK         0.5006 
     36 O          27.9501   23.6460   -1.3767 O.2       1 UNK        -0.5103 
     37 C          27.8121   28.1773    4.0904 C.2       5 UNK         0.5055 
     38 O          28.2290   28.6750    5.1368 O.2       5 UNK        -0.5220 
     39 N          26.7945   28.7133    3.3929 N.am      6 UNK        -0.4450 
     40 CA         26.0762   29.9320    3.7923 C.3       6 UNK         0.0367 
     41 CB         24.8335   30.1182    2.9078 C.3       6 UNK        -0.1929 
     42 C          26.9482   31.2028    3.7693 C.2       6 UNK         0.5070 
     43 O          26.6212   32.1683    4.4592 O.2       6 UNK        -0.5237 
     44 N          28.0514   31.1751    3.0082 N.am      7 UNK        -0.4739 
     45 CA         29.0771   32.2202    2.9824 C.3       7 UNK         0.0276 
     46 CB         29.7554   32.2034    1.6055 C.3       7 UNK        -0.1927 
     47 C          30.1134   32.0826    4.1172 C.2       7 UNK         0.5013 
     48 O          31.0118   32.9219    4.2054 O.2       7 UNK        -0.5193 
     49 N          29.9878   31.0435    4.9591 N.am      8 UNK        -0.4253 
     50 CA         30.8175   30.7431    6.1289 C.3       8 UNK         0.0242 
     51 CB         30.5133   31.7446    7.2673 C.3       8 UNK        -0.2000 
     52 C          32.3084   30.6272    5.7605 C.2       8 UNK         0.4948 
     53 O          32.6473   29.8249    4.8903 O.2       8 UNK        -0.5275 
     54 N          33.1649   31.4301    6.4066 N.am      9 UNK        -0.4246 
     55 CA         34.6159   31.4588    6.2078 C.3       9 UNK         0.0261 
     56 CB         35.2539   32.3511    7.2853 C.3       9 UNK        -0.1959 
     57 C          35.0620   31.9095    4.8045 C.2       9 UNK         0.5033 
     58 O          36.1634   31.5429    4.3912 O.2       9 UNK        -0.5390 
     59 N          34.2260   32.6848    4.0959 N.am      10 UNK        -0.4215 
     60 CA         34.4866   33.0986    2.7133 C.3       10 UNK         0.0240 
     61 CB         33.6160   34.3141    2.3562 C.3       10 UNK        -0.1982 
     62 C          34.2656   31.9515    1.7119 C.2       10 UNK         0.4970 
     63 O          34.9925   31.8742    0.7206 O.2       10 UNK        -0.4916 
     64 N          33.2910   31.0804    2.0081 N.am      11 UNK        -0.4279 
     65 CA         32.9093   29.8934    1.2311 C.3       11 UNK         0.1003 
     66 C          32.4810   30.1962   -0.2415 C.2       11 UNK         0.5709 
     67 N          32.4931   29.2077   -1.1255 N.am      11 UNK        -0.7358 
     68 O          32.0993   31.3128   -0.5874 O.2       11 UNK        -0.4999 
     69 C69        33.9630   28.7555    1.3763 C.3       12 UNK        -0.0954 
     70 S70        33.1845   27.1064    1.3757 S.3       12 UNK        -0.2268 
     71 C71        33.4248   26.5979    3.1082 C.3       12 UNK         0.0203 
     72 H72        27.8454   17.8446   -1.1176 H         1 UNK         0.0888 
     73 H73        29.4183   17.6624   -1.8993 H         1 UNK         0.0888 
     74 H74        29.3260   17.9993   -0.1698 H         1 UNK         0.0888 
     75 H75        29.8330   20.1256    0.2946 H         1 UNK         0.3017 
     76 H76        29.9736   22.1952   -1.6421 H         1 UNK         0.0873 
     77 H77        30.0244   22.3845    1.4086 H         1 UNK         0.0745 
     78 H78        30.4904   23.6739    0.3328 H         1 UNK         0.0745 
     79 H79        33.6049   21.4488    2.1922 H         1 UNK         0.0705 
     80 H80        31.9830   20.8618    2.4697 H         1 UNK         0.0705 
     81 H81        33.7358   24.1649    1.9224 H         1 UNK         0.1334 
     82 H82        31.4944   26.1555    4.9870 H         1 UNK         0.1417 
     83 H83        30.7396   22.0241    4.1119 H         1 UNK         0.1562 
     84 H84        30.4197   23.8283    6.7125 H         1 UNK         0.0748 
     85 H85        29.2680   23.1529    5.5874 H         1 UNK         0.0748 
     86 H86        27.0151   25.5697    4.3806 H         1 UNK         0.0940 
     87 H87        28.3810   24.7510    3.6872 H         1 UNK         0.0940 
     88 H88        29.5880   27.0736    3.6868 H         1 UNK         0.0703 
     89 H89        27.7661   26.0141    1.7635 H         1 UNK         0.3081 
     90 H90        28.3978   28.3605   -0.7856 H         1 UNK         0.0719 
     91 H91        29.4012   26.5061   -2.0913 H         1 UNK         0.0809 
     92 H92        30.5620   27.1184   -0.9229 H         1 UNK         0.0809 
     93 H93        29.7265   25.6075   -0.6112 H         1 UNK         0.0809 
     94 H94        27.2424   25.7599   -0.9041 H         1 UNK         0.2990 
     95 H95        24.1714   26.4294    0.6811 H         1 UNK         0.0690 
     96 H96        24.5145   26.4928   -2.3655 H         1 UNK         0.0788 
     97 H97        23.7217   27.7366   -1.4084 H         1 UNK         0.0788 
     98 H98        23.0245   26.1287   -1.4927 H         1 UNK         0.0788 
     99 H99        24.6948   24.3367   -1.0770 H         1 UNK         0.2993 
    100 H100       25.4730   22.0850    1.2622 H         1 UNK         0.0949 
    101 H101       25.3264   22.5045   -1.7790 H         1 UNK         0.0767 
    102 H102       25.0530   20.9976   -0.9205 H         1 UNK         0.0767 
    103 H103       23.9385   22.3298   -0.7001 H         1 UNK         0.0767 
    104 H104       27.5225   21.3738    0.7640 H         1 UNK         0.3013 
    105 H105       26.5271   28.3050    2.5038 H         1 UNK         0.3121 
    106 H106       25.7391   29.7903    4.8214 H         1 UNK         0.0774 
    107 H107       24.2237   30.9486    3.2662 H         1 UNK         0.0815 
    108 H108       25.1034   30.3397    1.8748 H         1 UNK         0.0815 
    109 H109       24.2030   29.2289    2.9089 H         1 UNK         0.0815 
    110 H110       28.2532   30.3354    2.4792 H         1 UNK         0.2987 
    111 H111       28.5997   33.1943    3.1101 H         1 UNK         0.0949 
    112 H112       30.2123   31.2365    1.4027 H         1 UNK         0.0806 
    113 H113       29.0402   32.4059    0.8084 H         1 UNK         0.0806 
    114 H114       30.5387   32.9587    1.5343 H         1 UNK         0.0806 
    115 H115       29.2429   30.3750    4.7905 H         1 UNK         0.3010 
    116 H116       30.5153   29.7520    6.4707 H         1 UNK         0.0829 
    117 H117       31.0485   31.4840    8.1814 H         1 UNK         0.0813 
    118 H118       30.7780   32.7685    7.0000 H         1 UNK         0.0813 
    119 H119       29.4512   31.7379    7.5134 H         1 UNK         0.0813 
    120 H120       32.7895   32.0700    7.0917 H         1 UNK         0.3038 
    121 H121       34.9839   30.4401    6.3476 H         1 UNK         0.0769 
    122 H122       34.9041   33.3819    7.2156 H         1 UNK         0.0811 
    123 H123       36.3402   32.3688    7.1845 H         1 UNK         0.0811 
    124 H124       35.0309   31.9860    8.2881 H         1 UNK         0.0811 
    125 H125       33.3238   32.9270    4.4885 H         1 UNK         0.3204 
    126 H126       35.5321   33.4058    2.6375 H         1 UNK         0.0748 
    127 H127       33.8332   34.6632    1.3458 H         1 UNK         0.0771 
    128 H128       32.5526   34.0798    2.3954 H         1 UNK         0.0771 
    129 H129       33.8010   35.1479    3.0337 H         1 UNK         0.0771 
    130 H130       32.7719   31.2184    2.8632 H         1 UNK         0.2980 
    131 H131       31.9947   29.5644    1.7238 H         1 UNK         0.0545 
    132 H132       32.2088   29.3887   -2.0748 H         1 UNK         0.3459 
    133 H133       32.7855   28.2840   -0.8451 H         1 UNK         0.3459 
    134 H134       34.7146   28.8058    0.5867 H         1 UNK         0.0616 
    135 H135       34.5166   28.8674    2.3104 H         1 UNK         0.0616 
    136 H136       33.0801   27.4001    3.7622 H         1 UNK         0.0634 
    137 H137       34.4896   26.4652    3.3036 H         1 UNK         0.0634 
@<TRIPOS>BOND
     1    1    2 1    
     2    1   72 1    
     3    1   73 1    
     4    1   74 1    
     5    2    3 2    
     6    2    4 am   BACKBONE|DICT|INTERRES
     7    4    5 1    
     8    4   75 1    
     9    5    6 1    
    10    5   35 1    
    11    5   76 1    
    12    6    7 1    
    13    6   77 1    
    14    6   78 1    
    15    7    8 1    
    16    8    9 1    
    17    8   79 1    
    18    8   80 1    
    19    9   10 ar   
    20    9   14 ar   
    21   10   11 ar   
    22   10   81 1    
    23   11   12 ar   
    24   11   71 1    
    25   12   13 ar   
    26   12   82 1    
    27   13   14 ar   
    28   13   15 1    
    29   14   83 1    
    30   15   16 1    
    31   15   84 1    
    32   15   85 1    
    33   16   17 1    
    34   17   18 1    
    35   17   86 1    
    36   17   87 1    
    37   18   19 1    
    38   18   37 1    
    39   18   88 1    
    40   19   20 am   BACKBONE|DICT|INTERRES
    41   19   89 1    
    42   20   21 2    
    43   20   22 1    
    44   22   23 1    
    45   22   24 1    
    46   22   90 1    
    47   23   91 1    
    48   23   92 1    
    49   23   93 1    
    50   24   25 am   BACKBONE|DICT|INTERRES
    51   24   94 1    
    52   25   26 2    
    53   25   27 1    
    54   27   28 1    
    55   27   29 1    
    56   27   95 1    
    57   28   96 1    
    58   28   97 1    
    59   28   98 1    
    60   29   30 am   BACKBONE|DICT|INTERRES
    61   29   99 1    
    62   30   31 2    
    63   30   32 1    
    64   32   33 1    
    65   32   34 1    
    66   32  100 1    
    67   33  101 1    
    68   33  102 1    
    69   33  103 1    
    70   34   35 am   BACKBONE|DICT|INTERRES
    71   34  104 1    
    72   35   36 2    
    73   37   38 2    
    74   37   39 am   BACKBONE|DICT|INTERRES
    75   39   40 1    
    76   39  105 1    
    77   40   41 1    
    78   40   42 1    
    79   40  106 1    
    80   41  107 1    
    81   41  108 1    
    82   41  109 1    
    83   42   43 2    
    84   42   44 am   BACKBONE|DICT|INTERRES
    85   44   45 1    
    86   44  110 1    
    87   45   46 1    
    88   45   47 1    
    89   45  111 1    
    90   46  112 1    
    91   46  113 1    
    92   46  114 1    
    93   47   48 2    
    94   47   49 am   BACKBONE|DICT|INTERRES
    95   49   50 1    
    96   49  115 1    
    97   50   51 1    
    98   50   52 1    
    99   50  116 1    
   100   51  117 1    
   101   51  118 1    
   102   51  119 1    
   103   52   53 2    
   104   52   54 am   BACKBONE|DICT|INTERRES
   105   54   55 1    
   106   54  120 1    
   107   55   56 1    
   108   55   57 1    
   109   55  121 1    
   110   56  122 1    
   111   56  123 1    
   112   56  124 1    
   113   57   58 2    
   114   57   59 am   BACKBONE|DICT|INTERRES
   115   59   60 1    
   116   59  125 1    
   117   60   61 1    
   118   60   62 1    
   119   60  126 1    
   120   61  127 1    
   121   61  128 1    
   122   61  129 1    
   123   62   63 2    
   124   62   64 am   BACKBONE|DICT|INTERRES
   125   64   65 1    
   126   64  130 1    
   127   65   66 1    
   128   65   69 1    
   129   65  131 1    
   130   66   67 am   BACKBONE|DICT|INTERRES
   131   66   68 2    
   132   67  132 1    
   133   67  133 1    
   134   69   70 1    
   135   69  134 1    
   136   69  135 1    
   137   70   71 1    
   138   71  136 1    
   139   71  137 1    
@<TRIPOS>SUBSTRUCTURE
     1 UNK         1 GROUP             0       ****    0 ROOT    
