@<TRIPOS>MOLECULE
3R136
137   139    1
SMALL
USER_CHARGES


@<TRIPOS>ATOM
      1 CA         31.8644   22.9200   -5.2237 C.3       0 UNK        -0.1979 
      2 C          31.3878   23.3680   -3.8498 C.2       0 UNK         0.4864 
      3 O          32.2112   23.6269   -2.9710 O.2       0 UNK        -0.5359 
      4 N          30.0681   23.4613   -3.6590 N.am      1 UNK        -0.4318 
      5 CA         29.4170   23.9004   -2.4276 C.3       1 UNK         0.0824 
      6 C6         29.3449   22.7650   -1.3703 C.3       12 UNK        -0.0944 
      7 S7         29.3754   23.4162    0.3296 S.3       12 UNK        -0.2672 
      8 C8         31.0945   23.0568    0.8019 C.3       12 UNK         0.0333 
      9 C9         31.4427   23.6918    2.1391 C.ar      12 UNK        -0.0807 
     10 C10        32.0817   24.9340    2.1792 C.ar      12 UNK        -0.0894 
     11 C11        32.4041   25.5306    3.4015 C.ar      12 UNK        -0.0804 
     12 C12        32.0949   24.8656    4.5921 C.ar      12 UNK        -0.0824 
     13 C13        31.4420   23.6288    4.5659 C.ar      12 UNK        -0.0762 
     14 C14        31.1263   23.0421    3.3359 C.ar      12 UNK        -0.0782 
     15 C15        31.0495   22.9405    5.8657 C.3       12 UNK         0.0230 
     16 S16        29.2545   23.0426    6.1726 S.3       12 UNK        -0.2608 
     17 C17        28.9961   24.8432    6.3431 C.3       12 UNK        -0.0989 
     18 CA         28.5247   25.5001    5.0188 C.3       5 UNK         0.0716 
     19 N          27.2661   24.9265    4.5297 N.am      5 UNK        -0.4135 
     20 C          26.8664   24.9440    3.2525 C.2       4 UNK         0.5031 
     21 O          27.5382   25.4474    2.3504 O.2       4 UNK        -0.5229 
     22 CA         25.5006   24.3141    2.9100 C.3       4 UNK         0.0329 
     23 CB         24.5962   24.0436    4.1349 C.3       4 UNK        -0.2001 
     24 N          24.7940   25.1059    1.8949 N.am      4 UNK        -0.4303 
     25 C          24.4071   26.3884    1.9946 C.2       3 UNK         0.5044 
     26 O          24.4721   27.0473    3.0341 O.2       3 UNK        -0.5152 
     27 CA         23.8473   27.0373    0.7090 C.3       3 UNK         0.0319 
     28 CB         23.8877   28.5809    0.7566 C.3       3 UNK        -0.2001 
     29 N          24.4757   26.5362   -0.5248 N.am      3 UNK        -0.4354 
     30 C          25.7728   26.6239   -0.8576 C.2       2 UNK         0.4964 
     31 O          26.6318   27.1871   -0.1792 O.2       2 UNK        -0.5047 
     32 CA         26.1831   25.9869   -2.1877 C.3       2 UNK         0.0288 
     33 CB         26.2217   27.0428   -3.3093 C.3       2 UNK        -0.2113 
     34 N          27.4982   25.3755   -2.0131 N.am      2 UNK        -0.4145 
     35 C          28.0260   24.4381   -2.8070 C.2       1 UNK         0.5006 
     36 O          27.4571   23.9877   -3.8070 O.2       1 UNK        -0.5103 
     37 C          28.4407   27.0403    5.1096 C.2       5 UNK         0.5055 
     38 O          28.5688   27.6044    6.1969 O.2       5 UNK        -0.5220 
     39 N          28.2145   27.6841    3.9605 N.am      6 UNK        -0.4450 
     40 CA         28.1850   29.1323    3.7614 C.3       6 UNK         0.0367 
     41 CB         26.8173   29.7008    4.1882 C.3       6 UNK        -0.1929 
     42 C          28.5432   29.4778    2.3041 C.2       6 UNK         0.5070 
     43 O          28.0931   30.5013    1.7875 O.2       6 UNK        -0.5237 
     44 N          29.3306   28.6094    1.6537 N.am      7 UNK        -0.4739 
     45 CA         29.6788   28.6963    0.2336 C.3       7 UNK         0.0276 
     46 CB         30.1351   27.3084   -0.2434 C.3       7 UNK        -0.1927 
     47 C          30.7602   29.7441   -0.0828 C.2       7 UNK         0.5013 
     48 O          30.8989   30.1233   -1.2468 O.2       7 UNK        -0.5193 
     49 N          31.5199   30.1739    0.9305 N.am      8 UNK        -0.4253 
     50 CA         32.6241   31.1217    0.8185 C.3       8 UNK         0.0242 
     51 CB         33.9237   30.3511    0.5191 C.3       8 UNK        -0.2000 
     52 C          32.7476   31.9061    2.1270 C.2       8 UNK         0.4948 
     53 O          32.2169   31.4752    3.1532 O.2       8 UNK        -0.5275 
     54 N          33.5013   33.0135    2.0925 N.am      9 UNK        -0.4246 
     55 CA         33.7754   33.8890    3.2426 C.3       9 UNK         0.0261 
     56 CB         34.5733   35.1133    2.7641 C.3       9 UNK        -0.1959 
     57 C          34.4981   33.2029    4.4207 C.2       9 UNK         0.5033 
     58 O          34.4345   33.7072    5.5424 O.2       9 UNK        -0.5390 
     59 N          35.1496   32.0624    4.1544 N.am      10 UNK        -0.4215 
     60 CA         35.7640   31.1819    5.1489 C.3       10 UNK         0.0240 
     61 CB         36.6626   30.1667    4.4224 C.3       10 UNK        -0.1982 
     62 C          34.7491   30.4461    6.0473 C.2       10 UNK         0.4970 
     63 O          35.1463   29.9768    7.1149 O.2       10 UNK        -0.4916 
     64 N          33.4864   30.3420    5.6126 N.am      11 UNK        -0.4279 
     65 CA         32.4005   29.6517    6.3251 C.3       11 UNK         0.1003 
     66 C          31.1028   30.4958    6.4511 C.2       11 UNK         0.5709 
     67 N          30.8139   31.4206    5.5443 N.am      11 UNK        -0.7358 
     68 O          30.3642   30.3403    7.4202 O.2       11 UNK        -0.4999 
     69 C69        32.1371   28.2312    5.7551 C.3       12 UNK        -0.0954 
     70 S70        31.9027   28.1925    3.9403 S.3       12 UNK        -0.2268 
     71 C71        33.0735   26.8972    3.4289 C.3       12 UNK         0.0203 
     72 H72        32.4549   22.0083   -5.1368 H         1 UNK         0.0888 
     73 H73        31.0322   22.7217   -5.8989 H         1 UNK         0.0888 
     74 H74        32.4902   23.6904   -5.6734 H         1 UNK         0.0888 
     75 H75        29.4178   23.2767   -4.4141 H         1 UNK         0.3017 
     76 H76        30.0000   24.7365   -2.0341 H         1 UNK         0.0873 
     77 H77        28.4543   22.1469   -1.5010 H         1 UNK         0.0745 
     78 H78        30.1860   22.0793   -1.4844 H         1 UNK         0.0745 
     79 H79        31.2394   21.9765    0.8520 H         1 UNK         0.0705 
     80 H80        31.7667   23.4240    0.0241 H         1 UNK         0.0705 
     81 H81        32.3272   25.4361    1.2546 H         1 UNK         0.1334 
     82 H82        32.3382   25.3243    5.5398 H         1 UNK         0.1417 
     83 H83        30.6147   22.0894    3.3112 H         1 UNK         0.1562 
     84 H84        31.5867   23.3696    6.7131 H         1 UNK         0.0748 
     85 H85        31.3412   21.8903    5.8203 H         1 UNK         0.0748 
     86 H86        29.9230   25.3020    6.6927 H         1 UNK         0.0940 
     87 H87        28.2629   25.0110    7.1341 H         1 UNK         0.0940 
     88 H88        29.2907   25.2959    4.2689 H         1 UNK         0.0703 
     89 H89        26.6620   24.5146    5.2248 H         1 UNK         0.3081 
     90 H90        25.7234   23.3531    2.4443 H         1 UNK         0.0719 
     91 H91        24.4020   24.9490    4.7112 H         1 UNK         0.0809 
     92 H92        23.6324   23.6383    3.8264 H         1 UNK         0.0809 
     93 H93        25.0446   23.3102    4.8061 H         1 UNK         0.0809 
     94 H94        24.7190   24.6731    0.9859 H         1 UNK         0.2990 
     95 H95        22.7989   26.7399    0.6580 H         1 UNK         0.0690 
     96 H96        23.4843   29.0179   -0.1567 H         1 UNK         0.0788 
     97 H97        24.9039   28.9551    0.8882 H         1 UNK         0.0788 
     98 H98        23.2931   28.9628    1.5874 H         1 UNK         0.0788 
     99 H99        23.8510   26.0634   -1.1643 H         1 UNK         0.2993 
    100 H100       25.4631   25.2068   -2.4454 H         1 UNK         0.0949 
    101 H101       26.9548   27.8229   -3.0991 H         1 UNK         0.0767 
    102 H102       26.4740   26.5968   -4.2714 H         1 UNK         0.0767 
    103 H103       25.2513   27.5277   -3.4233 H         1 UNK         0.0767 
    104 H104       27.9829   25.6686   -1.1729 H         1 UNK         0.3013 
    105 H105       28.0400   27.1135    3.1336 H         1 UNK         0.3121 
    106 H106       28.9589   29.5823    4.3852 H         1 UNK         0.0774 
    107 H107       26.0113   29.3012    3.5717 H         1 UNK         0.0815 
    108 H108       26.7962   30.7871    4.0939 H         1 UNK         0.0815 
    109 H109       26.5932   29.4646    5.2283 H         1 UNK         0.0815 
    110 H110       29.6997   27.8178    2.1612 H         1 UNK         0.2987 
    111 H111       28.7786   28.9709   -0.3212 H         1 UNK         0.0949 
    112 H112       29.4119   26.5382    0.0246 H         1 UNK         0.0806 
    113 H113       31.0946   27.0333    0.1926 H         1 UNK         0.0806 
    114 H114       30.2519   27.2888   -1.3277 H         1 UNK         0.0806 
    115 H115       31.3120   29.8703    1.8744 H         1 UNK         0.3010 
    116 H116       32.4192   31.8324    0.0149 H         1 UNK         0.0829 
    117 H117       34.7732   31.0267    0.4137 H         1 UNK         0.0813 
    118 H118       33.8445   29.7901   -0.4124 H         1 UNK         0.0813 
    119 H119       34.1624   29.6426    1.3137 H         1 UNK         0.0813 
    120 H120       33.9118   33.2911    1.2119 H         1 UNK         0.3038 
    121 H121       32.8122   34.2362    3.6226 H         1 UNK         0.0769 
    122 H122       35.5392   34.8275    2.3455 H         1 UNK         0.0811 
    123 H123       34.7668   35.8007    3.5890 H         1 UNK         0.0811 
    124 H124       34.0276   35.6717    2.0033 H         1 UNK         0.0811 
    125 H125       35.1577   31.7401    3.1984 H         1 UNK         0.3204 
    126 H126       36.3918   31.7940    5.7999 H         1 UNK         0.0748 
    127 H127       37.1701   29.5141    5.1345 H         1 UNK         0.0771 
    128 H128       36.0885   29.5287    3.7488 H         1 UNK         0.0771 
    129 H129       37.4354   30.6660    3.8376 H         1 UNK         0.0771 
    130 H130       33.2228   30.7598    4.7273 H         1 UNK         0.2980 
    131 H131       32.7139   29.5081    7.3609 H         1 UNK         0.0545 
    132 H132       29.9844   31.9778    5.6639 H         1 UNK         0.3459 
    133 H133       31.3650   31.5118    4.6934 H         1 UNK         0.3459 
    134 H134       31.2700   27.7733    6.2323 H         1 UNK         0.0616 
    135 H135       32.9811   27.5946    6.0206 H         1 UNK         0.0616 
    136 H136       33.4484   27.1538    2.4369 H         1 UNK         0.0634 
    137 H137       33.9457   26.8815    4.0835 H         1 UNK         0.0634 
@<TRIPOS>BOND
     1    1    2 1    
     2    1   72 1    
     3    1   73 1    
     4    1   74 1    
     5    2    3 2    
     6    2    4 am   BACKBONE|DICT|INTERRES
     7    4    5 1    
     8    4   75 1    
     9    5    6 1    
    10    5   35 1    
    11    5   76 1    
    12    6    7 1    
    13    6   77 1    
    14    6   78 1    
    15    7    8 1    
    16    8    9 1    
    17    8   79 1    
    18    8   80 1    
    19    9   10 ar   
    20    9   14 ar   
    21   10   11 ar   
    22   10   81 1    
    23   11   12 ar   
    24   11   71 1    
    25   12   13 ar   
    26   12   82 1    
    27   13   14 ar   
    28   13   15 1    
    29   14   83 1    
    30   15   16 1    
    31   15   84 1    
    32   15   85 1    
    33   16   17 1    
    34   17   18 1    
    35   17   86 1    
    36   17   87 1    
    37   18   19 1    
    38   18   37 1    
    39   18   88 1    
    40   19   20 am   BACKBONE|DICT|INTERRES
    41   19   89 1    
    42   20   21 2    
    43   20   22 1    
    44   22   23 1    
    45   22   24 1    
    46   22   90 1    
    47   23   91 1    
    48   23   92 1    
    49   23   93 1    
    50   24   25 am   BACKBONE|DICT|INTERRES
    51   24   94 1    
    52   25   26 2    
    53   25   27 1    
    54   27   28 1    
    55   27   29 1    
    56   27   95 1    
    57   28   96 1    
    58   28   97 1    
    59   28   98 1    
    60   29   30 am   BACKBONE|DICT|INTERRES
    61   29   99 1    
    62   30   31 2    
    63   30   32 1    
    64   32   33 1    
    65   32   34 1    
    66   32  100 1    
    67   33  101 1    
    68   33  102 1    
    69   33  103 1    
    70   34   35 am   BACKBONE|DICT|INTERRES
    71   34  104 1    
    72   35   36 2    
    73   37   38 2    
    74   37   39 am   BACKBONE|DICT|INTERRES
    75   39   40 1    
    76   39  105 1    
    77   40   41 1    
    78   40   42 1    
    79   40  106 1    
    80   41  107 1    
    81   41  108 1    
    82   41  109 1    
    83   42   43 2    
    84   42   44 am   BACKBONE|DICT|INTERRES
    85   44   45 1    
    86   44  110 1    
    87   45   46 1    
    88   45   47 1    
    89   45  111 1    
    90   46  112 1    
    91   46  113 1    
    92   46  114 1    
    93   47   48 2    
    94   47   49 am   BACKBONE|DICT|INTERRES
    95   49   50 1    
    96   49  115 1    
    97   50   51 1    
    98   50   52 1    
    99   50  116 1    
   100   51  117 1    
   101   51  118 1    
   102   51  119 1    
   103   52   53 2    
   104   52   54 am   BACKBONE|DICT|INTERRES
   105   54   55 1    
   106   54  120 1    
   107   55   56 1    
   108   55   57 1    
   109   55  121 1    
   110   56  122 1    
   111   56  123 1    
   112   56  124 1    
   113   57   58 2    
   114   57   59 am   BACKBONE|DICT|INTERRES
   115   59   60 1    
   116   59  125 1    
   117   60   61 1    
   118   60   62 1    
   119   60  126 1    
   120   61  127 1    
   121   61  128 1    
   122   61  129 1    
   123   62   63 2    
   124   62   64 am   BACKBONE|DICT|INTERRES
   125   64   65 1    
   126   64  130 1    
   127   65   66 1    
   128   65   69 1    
   129   65  131 1    
   130   66   67 am   BACKBONE|DICT|INTERRES
   131   66   68 2    
   132   67  132 1    
   133   67  133 1    
   134   69   70 1    
   135   69  134 1    
   136   69  135 1    
   137   70   71 1    
   138   71  136 1    
   139   71  137 1    
@<TRIPOS>SUBSTRUCTURE
     1 UNK         1 GROUP             0       ****    0 ROOT    
