@<TRIPOS>MOLECULE
3R136
137   139    1
SMALL
USER_CHARGES


@<TRIPOS>ATOM
      1 CA         27.5655   27.6482    3.0259 C.3       0 UNK        -0.1979 
      2 C          27.3729   26.1467    2.9054 C.2       0 UNK         0.4864 
      3 O          26.3063   25.6395    3.2445 O.2       0 UNK        -0.5359 
      4 N          28.4008   25.4367    2.4257 N.am      1 UNK        -0.4318 
      5 CA         28.4439   23.9806    2.2396 C.3       1 UNK         0.0824 
      6 C6         29.7955   23.5244    1.6388 C.3       12 UNK        -0.0944 
      7 S7         31.1767   23.8183    2.7887 S.3       12 UNK        -0.2672 
      8 C8         32.5969   23.8183    1.6573 C.3       12 UNK         0.0333 
      9 C9         32.9851   25.2263    1.2355 C.ar      12 UNK        -0.0807 
     10 C10        33.9046   25.9504    1.9997 C.ar      12 UNK        -0.0894 
     11 C11        34.3191   27.2226    1.5988 C.ar      12 UNK        -0.0804 
     12 C12        33.7969   27.7752    0.4254 C.ar      12 UNK        -0.0824 
     13 C13        32.8709   27.0636   -0.3455 C.ar      12 UNK        -0.0762 
     14 C14        32.4681   25.7890    0.0649 C.ar      12 UNK        -0.0782 
     15 C15        32.3417   27.6573   -1.6432 C.3       12 UNK         0.0230 
     16 S16        30.9394   28.7781   -1.3537 S.3       12 UNK        -0.2608 
     17 C17        29.5808   27.6158   -0.9892 C.3       12 UNK        -0.0989 
     18 CA         28.2436   28.0768   -1.6227 C.3       5 UNK         0.0716 
     19 N          27.2946   26.9714   -1.7100 N.am      5 UNK        -0.4135 
     20 C          26.7008   26.5368   -2.8334 C.2       4 UNK         0.5031 
     21 O          26.9463   26.9726   -3.9679 O.2       4 UNK        -0.5229 
     22 CA         25.6506   25.4244   -2.6748 C.3       4 UNK         0.0329 
     23 CB         26.2358   24.0669   -3.0992 C.3       4 UNK        -0.2001 
     24 N          25.1544   25.3184   -1.3029 N.am      4 UNK        -0.4303 
     25 C          24.1367   26.0310   -0.7981 C.2       3 UNK         0.5044 
     26 O          23.5109   26.8653   -1.4529 O.2       3 UNK        -0.5152 
     27 CA         23.7563   25.7947    0.6813 C.3       3 UNK         0.0319 
     28 CB         22.2322   25.8473    0.9135 C.3       3 UNK        -0.2001 
     29 N          24.3370   24.5783    1.2642 N.am      3 UNK        -0.4354 
     30 C          24.1383   23.3087    0.8734 C.2       2 UNK         0.4964 
     31 O          23.2902   22.9770    0.0445 O.2       2 UNK        -0.5047 
     32 CA         25.0753   22.2322    1.4652 C.3       2 UNK         0.0288 
     33 CB         25.3702   21.1054    0.4531 C.3       2 UNK        -0.2113 
     34 N          26.3347   22.7567    2.0140 N.am      2 UNK        -0.4145 
     35 C          27.2647   23.4878    1.3781 C.2       1 UNK         0.5006 
     36 O          27.1917   23.8305    0.1949 O.2       1 UNK        -0.5103 
     37 C          27.5957   29.2031   -0.8000 C.2       5 UNK         0.5055 
     38 O          26.8089   28.9231    0.1068 O.2       5 UNK        -0.5220 
     39 N          27.9696   30.4500   -1.1108 N.am      6 UNK        -0.4450 
     40 CA         27.5721   31.6520   -0.3714 C.3       6 UNK         0.0367 
     41 CB         27.4439   32.8214   -1.3638 C.3       6 UNK        -0.1929 
     42 C          28.5555   32.0098    0.7620 C.2       6 UNK         0.5070 
     43 O          28.2783   32.9402    1.5207 O.2       6 UNK        -0.5237 
     44 N          29.6923   31.3025    0.8449 N.am      7 UNK        -0.4739 
     45 CA         30.7337   31.4915    1.8573 C.3       7 UNK         0.0276 
     46 CB         32.0224   30.8112    1.3667 C.3       7 UNK        -0.1927 
     47 C          30.3235   30.9548    3.2417 C.2       7 UNK         0.5013 
     48 O          29.2730   30.3294    3.3892 O.2       7 UNK        -0.5193 
     49 N          31.1854   31.1930    4.2375 N.am      8 UNK        -0.4253 
     50 CA         30.9760   30.8249    5.6413 C.3       8 UNK         0.0242 
     51 CB         31.9929   31.5931    6.5024 C.3       8 UNK        -0.2000 
     52 C          31.0569   29.3162    5.9476 C.2       8 UNK         0.4948 
     53 O          30.7731   28.9356    7.0843 O.2       8 UNK        -0.5275 
     54 N          31.4884   28.4911    4.9799 N.am      9 UNK        -0.4246 
     55 CA         31.7881   27.0512    5.0674 C.3       9 UNK         0.0261 
     56 CB         30.5733   26.2237    5.5337 C.3       9 UNK        -0.1959 
     57 C          33.0355   26.7626    5.9196 C.2       9 UNK         0.5033 
     58 O          33.9935   26.1696    5.4241 O.2       9 UNK        -0.5390 
     59 N          33.0414   27.2577    7.1614 N.am      10 UNK        -0.4215 
     60 CA         34.2206   27.3841    8.0149 C.3       10 UNK         0.0240 
     61 CB         33.7812   27.3125    9.4886 C.3       10 UNK        -0.1982 
     62 C          34.9346   28.7024    7.6669 C.2       10 UNK         0.4970 
     63 O          34.9224   29.6427    8.4627 O.2       10 UNK        -0.4916 
     64 N          35.4819   28.7644    6.4469 N.am      11 UNK        -0.4279 
     65 CA         36.0607   29.9734    5.8387 C.3       11 UNK         0.1003 
     66 C          37.4004   30.4571    6.4674 C.2       11 UNK         0.5709 
     67 N          38.0784   29.6615    7.2862 N.am      11 UNK        -0.7358 
     68 O          37.8291   31.5792    6.2094 O.2       11 UNK        -0.4999 
     69 C69        36.1922   29.8442    4.2970 C.3       12 UNK        -0.0954 
     70 S70        34.6726   29.2603    3.4646 S.3       12 UNK        -0.2268 
     71 C71        35.3787   27.9668    2.3982 C.3       12 UNK         0.0203 
     72 H72        28.3782   28.0006    2.3932 H         1 UNK         0.0888 
     73 H73        26.6603   28.1718    2.7249 H         1 UNK         0.0888 
     74 H74        27.7892   27.9231    4.0553 H         1 UNK         0.0888 
     75 H75        29.2535   25.9161    2.1854 H         1 UNK         0.3017 
     76 H76        28.3495   23.5308    3.2302 H         1 UNK         0.0873 
     77 H77        29.7803   22.4559    1.4115 H         1 UNK         0.0745 
     78 H78        29.9864   24.0391    0.6950 H         1 UNK         0.0745 
     79 H79        33.4393   23.3444    2.1618 H         1 UNK         0.0705 
     80 H80        32.3848   23.1988    0.7846 H         1 UNK         0.0705 
     81 H81        34.3146   25.5118    2.8995 H         1 UNK         0.1334 
     82 H82        34.1213   28.7556    0.1056 H         1 UNK         0.1417 
     83 H83        31.7684   25.2264   -0.5371 H         1 UNK         0.1562 
     84 H84        32.0515   26.8711   -2.3420 H         1 UNK         0.0748 
     85 H85        33.1376   28.2173   -2.1369 H         1 UNK         0.0748 
     86 H86        29.4967   27.4797    0.0910 H         1 UNK         0.0940 
     87 H87        29.8507   26.6383   -1.3916 H         1 UNK         0.0940 
     88 H88        28.4444   28.4616   -2.6246 H         1 UNK         0.0703 
     89 H89        26.9749   26.5994   -0.8199 H         1 UNK         0.3081 
     90 H90        24.8165   25.6560   -3.3399 H         1 UNK         0.0719 
     91 H91        26.5522   24.0895   -4.1422 H         1 UNK         0.0809 
     92 H92        27.1069   23.7963   -2.5019 H         1 UNK         0.0809 
     93 H93        25.5006   23.2674   -3.0005 H         1 UNK         0.0809 
     94 H94        25.6504   24.6706   -0.6982 H         1 UNK         0.2990 
     95 H95        24.2010   26.6235    1.2326 H         1 UNK         0.0690 
     96 H96        21.9848   25.6901    1.9634 H         1 UNK         0.0788 
     97 H97        21.7059   25.0938    0.3278 H         1 UNK         0.0788 
     98 H98        21.8275   26.8197    0.6294 H         1 UNK         0.0788 
     99 H99        25.0501   24.7528    1.9708 H         1 UNK         0.2993 
    100 H100       24.5327   21.7925    2.3042 H         1 UNK         0.0949 
    101 H101       25.8508   21.4891   -0.4485 H         1 UNK         0.0767 
    102 H102       26.0220   20.3450    0.8830 H         1 UNK         0.0767 
    103 H103       24.4532   20.6028    0.1453 H         1 UNK         0.0767 
    104 H104       26.4722   22.5822    3.0011 H         1 UNK         0.3013 
    105 H105       28.6322   30.5839   -1.8625 H         1 UNK         0.3121 
    106 H106       26.5949   31.4898    0.0888 H         1 UNK         0.0774 
    107 H107       28.3977   33.0565   -1.8382 H         1 UNK         0.0815 
    108 H108       26.7224   32.5975   -2.1500 H         1 UNK         0.0815 
    109 H109       27.0994   33.7257   -0.8604 H         1 UNK         0.0815 
    110 H110       29.8294   30.5383    0.1990 H         1 UNK         0.2987 
    111 H111       30.9193   32.5635    1.9544 H         1 UNK         0.0949 
    112 H112       32.2695   31.1077    0.3471 H         1 UNK         0.0806 
    113 H113       32.8749   31.0850    1.9875 H         1 UNK         0.0806 
    114 H114       31.9350   29.7242    1.3889 H         1 UNK         0.0806 
    115 H115       32.0353   31.6977    4.0308 H         1 UNK         0.3010 
    116 H116       29.9731   31.1503    5.9260 H         1 UNK         0.0829 
    117 H117       33.0173   31.3085    6.2622 H         1 UNK         0.0813 
    118 H118       31.8421   31.3922    7.5641 H         1 UNK         0.0813 
    119 H119       31.8996   32.6703    6.3646 H         1 UNK         0.0813 
    120 H120       31.7348   28.9202    4.0996 H         1 UNK         0.3038 
    121 H121       32.0215   26.7364    4.0493 H         1 UNK         0.0769 
    122 H122       29.7084   26.4023    4.8976 H         1 UNK         0.0811 
    123 H123       30.2837   26.4460    6.5606 H         1 UNK         0.0811 
    124 H124       30.7943   25.1565    5.4900 H         1 UNK         0.0811 
    125 H125       32.2197   27.7946    7.4342 H         1 UNK         0.3204 
    126 H126       34.9120   26.5601    7.8252 H         1 UNK         0.0748 
    127 H127       33.0750   28.1049    9.7410 H         1 UNK         0.0771 
    128 H128       33.3047   26.3579    9.7117 H         1 UNK         0.0771 
    129 H129       34.6380   27.4110   10.1564 H         1 UNK         0.0771 
    130 H130       35.4115   27.9545    5.8451 H         1 UNK         0.2980 
    131 H131       35.3503   30.7800    6.0257 H         1 UNK         0.0545 
    132 H132       38.9415   29.9884    7.6909 H         1 UNK         0.3459 
    133 H133       37.7339   28.7409    7.5048 H         1 UNK         0.3459 
    134 H134       37.0163   29.1711    4.0542 H         1 UNK         0.0616 
    135 H135       36.4545   30.8086    3.8584 H         1 UNK         0.0616 
    136 H136       35.9408   27.2650    3.0168 H         1 UNK         0.0634 
    137 H137       36.0983   28.4207    1.7153 H         1 UNK         0.0634 
@<TRIPOS>BOND
     1    1    2 1    
     2    1   72 1    
     3    1   73 1    
     4    1   74 1    
     5    2    3 2    
     6    2    4 am   BACKBONE|DICT|INTERRES
     7    4    5 1    
     8    4   75 1    
     9    5    6 1    
    10    5   35 1    
    11    5   76 1    
    12    6    7 1    
    13    6   77 1    
    14    6   78 1    
    15    7    8 1    
    16    8    9 1    
    17    8   79 1    
    18    8   80 1    
    19    9   10 ar   
    20    9   14 ar   
    21   10   11 ar   
    22   10   81 1    
    23   11   12 ar   
    24   11   71 1    
    25   12   13 ar   
    26   12   82 1    
    27   13   14 ar   
    28   13   15 1    
    29   14   83 1    
    30   15   16 1    
    31   15   84 1    
    32   15   85 1    
    33   16   17 1    
    34   17   18 1    
    35   17   86 1    
    36   17   87 1    
    37   18   19 1    
    38   18   37 1    
    39   18   88 1    
    40   19   20 am   BACKBONE|DICT|INTERRES
    41   19   89 1    
    42   20   21 2    
    43   20   22 1    
    44   22   23 1    
    45   22   24 1    
    46   22   90 1    
    47   23   91 1    
    48   23   92 1    
    49   23   93 1    
    50   24   25 am   BACKBONE|DICT|INTERRES
    51   24   94 1    
    52   25   26 2    
    53   25   27 1    
    54   27   28 1    
    55   27   29 1    
    56   27   95 1    
    57   28   96 1    
    58   28   97 1    
    59   28   98 1    
    60   29   30 am   BACKBONE|DICT|INTERRES
    61   29   99 1    
    62   30   31 2    
    63   30   32 1    
    64   32   33 1    
    65   32   34 1    
    66   32  100 1    
    67   33  101 1    
    68   33  102 1    
    69   33  103 1    
    70   34   35 am   BACKBONE|DICT|INTERRES
    71   34  104 1    
    72   35   36 2    
    73   37   38 2    
    74   37   39 am   BACKBONE|DICT|INTERRES
    75   39   40 1    
    76   39  105 1    
    77   40   41 1    
    78   40   42 1    
    79   40  106 1    
    80   41  107 1    
    81   41  108 1    
    82   41  109 1    
    83   42   43 2    
    84   42   44 am   BACKBONE|DICT|INTERRES
    85   44   45 1    
    86   44  110 1    
    87   45   46 1    
    88   45   47 1    
    89   45  111 1    
    90   46  112 1    
    91   46  113 1    
    92   46  114 1    
    93   47   48 2    
    94   47   49 am   BACKBONE|DICT|INTERRES
    95   49   50 1    
    96   49  115 1    
    97   50   51 1    
    98   50   52 1    
    99   50  116 1    
   100   51  117 1    
   101   51  118 1    
   102   51  119 1    
   103   52   53 2    
   104   52   54 am   BACKBONE|DICT|INTERRES
   105   54   55 1    
   106   54  120 1    
   107   55   56 1    
   108   55   57 1    
   109   55  121 1    
   110   56  122 1    
   111   56  123 1    
   112   56  124 1    
   113   57   58 2    
   114   57   59 am   BACKBONE|DICT|INTERRES
   115   59   60 1    
   116   59  125 1    
   117   60   61 1    
   118   60   62 1    
   119   60  126 1    
   120   61  127 1    
   121   61  128 1    
   122   61  129 1    
   123   62   63 2    
   124   62   64 am   BACKBONE|DICT|INTERRES
   125   64   65 1    
   126   64  130 1    
   127   65   66 1    
   128   65   69 1    
   129   65  131 1    
   130   66   67 am   BACKBONE|DICT|INTERRES
   131   66   68 2    
   132   67  132 1    
   133   67  133 1    
   134   69   70 1    
   135   69  134 1    
   136   69  135 1    
   137   70   71 1    
   138   71  136 1    
   139   71  137 1    
@<TRIPOS>SUBSTRUCTURE
     1 UNK         1 GROUP             0       ****    0 ROOT    
