@<TRIPOS>MOLECULE
3R136
137   139    1
SMALL
USER_CHARGES


@<TRIPOS>ATOM
      1 CA         30.2820   24.0441    5.2980 C.3       0 UNK        -0.1979 
      2 C          29.1704   24.0028    4.2613 C.2       0 UNK         0.4864 
      3 O          27.9965   23.9070    4.6237 O.2       0 UNK        -0.5359 
      4 N          29.5258   24.0656    2.9710 N.am      1 UNK        -0.4318 
      5 CA         28.6221   23.8915    1.8251 C.3       1 UNK         0.0824 
      6 C6         29.3562   23.3279    0.5760 C.3       12 UNK        -0.0944 
      7 S7         30.4252   21.8909    0.9777 S.3       12 UNK        -0.2672 
      8 C8         32.1111   22.3794    0.4550 C.3       12 UNK         0.0333 
      9 C9         32.4493   23.8356    0.7508 C.ar      12 UNK        -0.0807 
     10 C10        32.7114   24.2665    2.0540 C.ar      12 UNK        -0.0894 
     11 C11        32.9556   25.6196    2.3129 C.ar      12 UNK        -0.0804 
     12 C12        32.9303   26.5398    1.2598 C.ar      12 UNK        -0.0824 
     13 C13        32.6846   26.1223   -0.0521 C.ar      12 UNK        -0.0762 
     14 C14        32.4781   24.7592   -0.2970 C.ar      12 UNK        -0.0782 
     15 C15        32.6395   27.1725   -1.1674 C.3       12 UNK         0.0230 
     16 S16        31.7681   26.6700   -2.6982 S.3       12 UNK        -0.2608 
     17 C17        30.1245   26.2005   -2.0553 C.3       12 UNK        -0.0989 
     18 CA         28.9486   26.9531   -2.7202 C.3       5 UNK         0.0716 
     19 N          27.6714   26.3428   -2.3576 N.am      5 UNK        -0.4135 
     20 C          26.7333   25.9455   -3.2259 C.2       4 UNK         0.5031 
     21 O          26.8375   26.0325   -4.4503 O.2       4 UNK        -0.5229 
     22 CA         25.4512   25.3494   -2.6217 C.3       4 UNK         0.0329 
     23 CB         25.6985   23.9163   -2.1213 C.3       4 UNK        -0.2001 
     24 N          24.9187   26.1613   -1.5277 N.am      4 UNK        -0.4303 
     25 C          24.4143   27.3963   -1.6478 C.2       3 UNK         0.5044 
     26 O          24.2782   27.9757   -2.7257 O.2       3 UNK        -0.5152 
     27 CA         24.0077   28.1259   -0.3536 C.3       3 UNK         0.0319 
     28 CB         22.5475   27.8182    0.0319 C.3       3 UNK        -0.2001 
     29 N          24.9316   27.9139    0.7701 N.am      3 UNK        -0.4354 
     30 C          25.1622   26.7971    1.4722 C.2       2 UNK         0.4964 
     31 O          24.5606   25.7340    1.3039 O.2       2 UNK        -0.5047 
     32 CA         26.2855   26.8763    2.5166 C.3       2 UNK         0.0288 
     33 CB         25.7166   27.1443    3.9185 C.3       2 UNK        -0.2113 
     34 N          27.0958   25.6614    2.5474 N.am      2 UNK        -0.4145 
     35 C          27.8368   25.1918    1.5355 C.2       1 UNK         0.5006 
     36 O          27.9324   25.7617    0.4430 O.2       1 UNK        -0.5103 
     37 C          28.9166   28.4457   -2.3544 C.2       5 UNK         0.5055 
     38 O          29.0043   29.2900   -3.2479 O.2       5 UNK        -0.5220 
     39 N          28.7891   28.7464   -1.0556 N.am      6 UNK        -0.4450 
     40 CA         28.8251   30.1015   -0.5104 C.3       6 UNK         0.0367 
     41 CB         30.2799   30.6273   -0.4690 C.3       6 UNK        -0.1929 
     42 C          28.1212   30.0904    0.8512 C.2       6 UNK         0.5070 
     43 O          26.9068   29.8941    0.8975 O.2       6 UNK        -0.5237 
     44 N          28.8836   30.2685    1.9320 N.am      7 UNK        -0.4739 
     45 CA         28.4465   30.1840    3.3200 C.3       7 UNK         0.0276 
     46 CB         28.2099   31.6010    3.8687 C.3       7 UNK        -0.1927 
     47 C          29.5514   29.4754    4.1072 C.2       7 UNK         0.5013 
     48 O          30.7203   29.5590    3.7191 O.2       7 UNK        -0.5193 
     49 N          29.1853   28.8393    5.2282 N.am      8 UNK        -0.4253 
     50 CA         30.1163   28.1339    6.1201 C.3       8 UNK         0.0242 
     51 CB         29.3266   27.4029    7.2165 C.3       8 UNK        -0.2000 
     52 C          31.2000   29.0384    6.7355 C.2       8 UNK         0.4948 
     53 O          32.2921   28.5550    7.0346 O.2       8 UNK        -0.5275 
     54 N          30.9113   30.3439    6.8390 N.am      9 UNK        -0.4246 
     55 CA         31.8427   31.4053    7.2307 C.3       9 UNK         0.0261 
     56 CB         31.0777   32.7370    7.3040 C.3       9 UNK        -0.1959 
     57 C          33.0775   31.5453    6.3164 C.2       9 UNK         0.5033 
     58 O          34.0765   32.1136    6.7592 O.2       9 UNK        -0.5390 
     59 N          33.0140   31.0185    5.0820 N.am      10 UNK        -0.4215 
     60 CA         34.1617   30.9115    4.1766 C.3       10 UNK         0.0240 
     61 CB         33.6689   30.5651    2.7622 C.3       10 UNK        -0.1982 
     62 C          35.2066   29.8815    4.6490 C.2       10 UNK         0.4970 
     63 O          36.3810   30.0310    4.3094 O.2       10 UNK        -0.4916 
     64 N          34.7703   28.8731    5.4154 N.am      11 UNK        -0.4279 
     65 CA         35.6271   27.8567    6.0406 C.3       11 UNK         0.1003 
     66 C          35.8636   28.1605    7.5427 C.2       11 UNK         0.5709 
     67 N          34.8556   28.6051    8.2838 N.am      11 UNK        -0.7358 
     68 O          36.9759   27.9986    8.0390 O.2       11 UNK        -0.4999 
     69 C69        35.0497   26.4305    5.8584 C.3       12 UNK        -0.0954 
     70 S70        35.0145   25.9165    4.1103 S.3       12 UNK        -0.2268 
     71 C71        33.2473   26.0897    3.7288 C.3       12 UNK         0.0203 
     72 H72        30.0148   23.4338    6.1605 H         1 UNK         0.0888 
     73 H73        30.4457   25.0627    5.6429 H         1 UNK         0.0888 
     74 H74        31.2164   23.6547    4.8958 H         1 UNK         0.0888 
     75 H75        30.4996   24.1722    2.7239 H         1 UNK         0.3017 
     76 H76        27.8754   23.1448    2.1050 H         1 UNK         0.0873 
     77 H77        29.9357   24.1058    0.0860 H         1 UNK         0.0745 
     78 H78        28.6253   23.0032   -0.1664 H         1 UNK         0.0745 
     79 H79        32.8344   21.7323    0.9530 H         1 UNK         0.0705 
     80 H80        32.2120   22.1747   -0.6121 H         1 UNK         0.0705 
     81 H81        32.7236   23.5492    2.8635 H         1 UNK         0.1334 
     82 H82        33.1077   27.5867    1.4624 H         1 UNK         0.1417 
     83 H83        32.2972   24.4089   -1.3029 H         1 UNK         0.1562 
     84 H84        33.6628   27.4464   -1.4271 H         1 UNK         0.0748 
     85 H85        32.1628   28.0793   -0.7934 H         1 UNK         0.0748 
     86 H86        30.0978   26.3183   -0.9716 H         1 UNK         0.0940 
     87 H87        30.0110   25.1302   -2.2350 H         1 UNK         0.0940 
     88 H88        29.0916   26.8896   -3.8013 H         1 UNK         0.0703 
     89 H89        27.5136   26.1994   -1.3636 H         1 UNK         0.3081 
     90 H90        24.6962   25.3111   -3.4097 H         1 UNK         0.0719 
     91 H91        26.4132   23.8908   -1.2977 H         1 UNK         0.0809 
     92 H92        24.7741   23.4536   -1.7751 H         1 UNK         0.0809 
     93 H93        26.0959   23.2872   -2.9190 H         1 UNK         0.0809 
     94 H94        24.9455   25.7634   -0.5935 H         1 UNK         0.2990 
     95 H95        24.0672   29.1936   -0.5713 H         1 UNK         0.0690 
     96 H96        22.2475   28.3716    0.9218 H         1 UNK         0.0788 
     97 H97        22.3876   26.7573    0.2259 H         1 UNK         0.0788 
     98 H98        21.8676   28.1034   -0.7720 H         1 UNK         0.0788 
     99 H99        25.5498   28.7072    0.9444 H         1 UNK         0.2993 
    100 H100       26.9577   27.6890    2.2476 H         1 UNK         0.0949 
    101 H101       25.1549   28.0792    3.9402 H         1 UNK         0.0767 
    102 H102       25.0400   26.3488    4.2344 H         1 UNK         0.0767 
    103 H103       26.5095   27.2223    4.6623 H         1 UNK         0.0767 
    104 H104       27.0986   25.1241    3.4100 H         1 UNK         0.3013 
    105 H105       28.6581   28.0018   -0.3828 H         1 UNK         0.3121 
    106 H106       28.2380   30.7592   -1.1552 H         1 UNK         0.0774 
    107 H107       30.7033   30.6954   -1.4711 H         1 UNK         0.0815 
    108 H108       30.9343   29.9828    0.1187 H         1 UNK         0.0815 
    109 H109       30.3247   31.6298   -0.0411 H         1 UNK         0.0815 
    110 H110       29.8873   30.3471    1.8232 H         1 UNK         0.2987 
    111 H111       27.5248   29.6058    3.3994 H         1 UNK         0.0949 
    112 H112       29.1184   32.2042    3.8359 H         1 UNK         0.0806 
    113 H113       27.4437   32.1222    3.2945 H         1 UNK         0.0806 
    114 H114       27.8717   31.5722    4.9052 H         1 UNK         0.0806 
    115 H115       28.2123   28.8389    5.4990 H         1 UNK         0.3010 
    116 H116       30.6392   27.3900    5.5166 H         1 UNK         0.0829 
    117 H117       28.6252   26.6850    6.7904 H         1 UNK         0.0813 
    118 H118       29.9965   26.8465    7.8739 H         1 UNK         0.0813 
    119 H119       28.7616   28.0973    7.8396 H         1 UNK         0.0813 
    120 H120       29.9841   30.6396    6.5726 H         1 UNK         0.3038 
    121 H121       32.2107   31.1634    8.2300 H         1 UNK         0.0769 
    122 H122       30.6623   33.0180    6.3352 H         1 UNK         0.0811 
    123 H123       31.7341   33.5477    7.6240 H         1 UNK         0.0811 
    124 H124       30.2580   32.6867    8.0210 H         1 UNK         0.0811 
    125 H125       32.1539   30.5763    4.7718 H         1 UNK         0.3204 
    126 H126       34.6533   31.8859    4.1362 H         1 UNK         0.0748 
    127 H127       32.9520   31.3013    2.3981 H         1 UNK         0.0771 
    128 H128       34.4985   30.5408    2.0543 H         1 UNK         0.0771 
    129 H129       33.1885   29.5873    2.7340 H         1 UNK         0.0771 
    130 H130       33.7999   28.8555    5.7044 H         1 UNK         0.2980 
    131 H131       36.6100   27.8679    5.5654 H         1 UNK         0.0545 
    132 H132       35.0105   28.8081    9.2579 H         1 UNK         0.3459 
    133 H133       33.9195   28.6686    7.8926 H         1 UNK         0.3459 
    134 H134       35.6626   25.7017    6.3921 H         1 UNK         0.0616 
    135 H135       34.0491   26.3580    6.2892 H         1 UNK         0.0616 
    136 H136       32.6659   25.5092    4.4440 H         1 UNK         0.0634 
    137 H137       32.9460   27.1310    3.8562 H         1 UNK         0.0634 
@<TRIPOS>BOND
     1    1    2 1    
     2    1   72 1    
     3    1   73 1    
     4    1   74 1    
     5    2    3 2    
     6    2    4 am   BACKBONE|DICT|INTERRES
     7    4    5 1    
     8    4   75 1    
     9    5    6 1    
    10    5   35 1    
    11    5   76 1    
    12    6    7 1    
    13    6   77 1    
    14    6   78 1    
    15    7    8 1    
    16    8    9 1    
    17    8   79 1    
    18    8   80 1    
    19    9   10 ar   
    20    9   14 ar   
    21   10   11 ar   
    22   10   81 1    
    23   11   12 ar   
    24   11   71 1    
    25   12   13 ar   
    26   12   82 1    
    27   13   14 ar   
    28   13   15 1    
    29   14   83 1    
    30   15   16 1    
    31   15   84 1    
    32   15   85 1    
    33   16   17 1    
    34   17   18 1    
    35   17   86 1    
    36   17   87 1    
    37   18   19 1    
    38   18   37 1    
    39   18   88 1    
    40   19   20 am   BACKBONE|DICT|INTERRES
    41   19   89 1    
    42   20   21 2    
    43   20   22 1    
    44   22   23 1    
    45   22   24 1    
    46   22   90 1    
    47   23   91 1    
    48   23   92 1    
    49   23   93 1    
    50   24   25 am   BACKBONE|DICT|INTERRES
    51   24   94 1    
    52   25   26 2    
    53   25   27 1    
    54   27   28 1    
    55   27   29 1    
    56   27   95 1    
    57   28   96 1    
    58   28   97 1    
    59   28   98 1    
    60   29   30 am   BACKBONE|DICT|INTERRES
    61   29   99 1    
    62   30   31 2    
    63   30   32 1    
    64   32   33 1    
    65   32   34 1    
    66   32  100 1    
    67   33  101 1    
    68   33  102 1    
    69   33  103 1    
    70   34   35 am   BACKBONE|DICT|INTERRES
    71   34  104 1    
    72   35   36 2    
    73   37   38 2    
    74   37   39 am   BACKBONE|DICT|INTERRES
    75   39   40 1    
    76   39  105 1    
    77   40   41 1    
    78   40   42 1    
    79   40  106 1    
    80   41  107 1    
    81   41  108 1    
    82   41  109 1    
    83   42   43 2    
    84   42   44 am   BACKBONE|DICT|INTERRES
    85   44   45 1    
    86   44  110 1    
    87   45   46 1    
    88   45   47 1    
    89   45  111 1    
    90   46  112 1    
    91   46  113 1    
    92   46  114 1    
    93   47   48 2    
    94   47   49 am   BACKBONE|DICT|INTERRES
    95   49   50 1    
    96   49  115 1    
    97   50   51 1    
    98   50   52 1    
    99   50  116 1    
   100   51  117 1    
   101   51  118 1    
   102   51  119 1    
   103   52   53 2    
   104   52   54 am   BACKBONE|DICT|INTERRES
   105   54   55 1    
   106   54  120 1    
   107   55   56 1    
   108   55   57 1    
   109   55  121 1    
   110   56  122 1    
   111   56  123 1    
   112   56  124 1    
   113   57   58 2    
   114   57   59 am   BACKBONE|DICT|INTERRES
   115   59   60 1    
   116   59  125 1    
   117   60   61 1    
   118   60   62 1    
   119   60  126 1    
   120   61  127 1    
   121   61  128 1    
   122   61  129 1    
   123   62   63 2    
   124   62   64 am   BACKBONE|DICT|INTERRES
   125   64   65 1    
   126   64  130 1    
   127   65   66 1    
   128   65   69 1    
   129   65  131 1    
   130   66   67 am   BACKBONE|DICT|INTERRES
   131   66   68 2    
   132   67  132 1    
   133   67  133 1    
   134   69   70 1    
   135   69  134 1    
   136   69  135 1    
   137   70   71 1    
   138   71  136 1    
   139   71  137 1    
@<TRIPOS>SUBSTRUCTURE
     1 UNK         1 GROUP             0       ****    0 ROOT    
