@<TRIPOS>MOLECULE
3R136
137   139    1
SMALL
USER_CHARGES


@<TRIPOS>ATOM
      1 CA         26.1162   25.5150   -1.4913 C.3       0 UNK        -0.1979 
      2 C          26.7254   24.4639   -0.5754 C.2       0 UNK         0.4864 
      3 O          25.9908   23.8185    0.1727 O.2       0 UNK        -0.5359 
      4 N          28.0557   24.2962   -0.6280 N.am      1 UNK        -0.4318 
      5 CA         28.8609   23.4138    0.2266 C.3       1 UNK         0.0824 
      6 C6         28.4652   21.9116    0.0754 C.3       12 UNK        -0.0944 
      7 S7         29.5078   20.6806    0.9311 S.3       12 UNK        -0.2672 
      8 C8         31.1558   20.9356    0.1939 C.3       12 UNK         0.0333 
      9 C9         31.9673   22.0093    0.9119 C.ar      12 UNK        -0.0807 
     10 C10        32.0850   21.9991    2.3062 C.ar      12 UNK        -0.0894 
     11 C11        32.8543   22.9600    2.9666 C.ar      12 UNK        -0.0804 
     12 C12        33.5124   23.9414    2.2181 C.ar      12 UNK        -0.0824 
     13 C13        33.4028   23.9692    0.8245 C.ar      12 UNK        -0.0762 
     14 C14        32.6370   22.9929    0.1774 C.ar      12 UNK        -0.0782 
     15 C15        34.1455   25.0340    0.0232 C.3       12 UNK         0.0230 
     16 S16        33.0637   25.9350   -1.1340 S.3       12 UNK        -0.2608 
     17 C17        31.8919   26.7318    0.0116 C.3       12 UNK        -0.0989 
     18 CA         31.4296   28.1277   -0.4871 C.3       5 UNK         0.0716 
     19 N          30.2622   28.6301    0.2317 N.am      5 UNK        -0.4135 
     20 C          29.0300   28.1378    0.0972 C.2       4 UNK         0.5031 
     21 O          28.7410   27.2181   -0.6712 O.2       4 UNK        -0.5229 
     22 CA         27.9229   28.7651    0.9488 C.3       4 UNK         0.0329 
     23 CB         26.8947   29.4828    0.0500 C.3       4 UNK        -0.2001 
     24 N          27.3095   27.6889    1.7266 N.am      4 UNK        -0.4303 
     25 C          26.4042   27.8403    2.7048 C.2       3 UNK         0.5044 
     26 O          25.9099   28.9222    3.0152 O.2       3 UNK        -0.5152 
     27 CA         25.9742   26.5929    3.4937 C.3       3 UNK         0.0319 
     28 CB         24.6931   25.9900    2.8828 C.3       3 UNK        -0.2001 
     29 N          27.0498   25.6061    3.5460 N.am      3 UNK        -0.4354 
     30 C          27.1164   24.5052    4.3002 C.2       2 UNK         0.4964 
     31 O          26.2550   24.1761    5.1184 O.2       2 UNK        -0.5047 
     32 CA         28.3630   23.6214    4.0745 C.3       2 UNK         0.0288 
     33 CB         28.3890   22.3720    4.9743 C.3       2 UNK        -0.2113 
     34 N          28.5032   23.2015    2.6750 N.am      2 UNK        -0.4145 
     35 C          28.8742   23.9923    1.6590 C.2       1 UNK         0.5006 
     36 O          29.1817   25.1781    1.8158 O.2       1 UNK        -0.5103 
     37 C          32.4908   29.2403   -0.4876 C.2       5 UNK         0.5055 
     38 O          32.3228   30.2053   -1.2364 O.2       5 UNK        -0.5220 
     39 N          33.5479   29.1241    0.3329 N.am      6 UNK        -0.4450 
     40 CA         34.5740   30.1653    0.4767 C.3       6 UNK         0.0367 
     41 CB         35.8361   29.5806    1.1304 C.3       6 UNK        -0.1929 
     42 C          34.0622   31.3860    1.2631 C.2       6 UNK         0.5070 
     43 O          34.5403   32.4967    1.0303 O.2       6 UNK        -0.5237 
     44 N          33.0837   31.1627    2.1490 N.am      7 UNK        -0.4739 
     45 CA         32.2635   32.1969    2.7732 C.3       7 UNK         0.0276 
     46 CB         32.1413   31.9045    4.2767 C.3       7 UNK        -0.1927 
     47 C          30.8779   32.1799    2.1138 C.2       7 UNK         0.5013 
     48 O          30.4553   31.1444    1.5933 O.2       7 UNK        -0.5193 
     49 N          30.1770   33.3173    2.1756 N.am      8 UNK        -0.4253 
     50 CA         28.8516   33.5013    1.5753 C.3       8 UNK         0.0242 
     51 CB         28.5585   35.0077    1.4696 C.3       8 UNK        -0.2000 
     52 C          27.7083   32.7854    2.3197 C.2       8 UNK         0.4948 
     53 O          26.6318   32.6378    1.7407 O.2       8 UNK        -0.5275 
     54 N          27.9386   32.3871    3.5784 N.am      9 UNK        -0.4246 
     55 CA         26.9345   31.7844    4.4594 C.3       9 UNK         0.0261 
     56 CB         26.3092   32.8858    5.3404 C.3       9 UNK        -0.1959 
     57 C          27.5015   30.6190    5.2932 C.2       9 UNK         0.5033 
     58 O          26.9343   30.3020    6.3413 O.2       9 UNK        -0.5390 
     59 N          28.6031   30.0034    4.8430 N.am      10 UNK        -0.4215 
     60 CA         29.2920   28.8974    5.5104 C.3       10 UNK         0.0240 
     61 CB         30.0016   29.4006    6.7901 C.3       10 UNK        -0.1982 
     62 C          30.2858   28.2591    4.5293 C.2       10 UNK         0.4970 
     63 O          30.3444   28.6684    3.3689 O.2       10 UNK        -0.4916 
     64 N          31.0747   27.2979    5.0261 N.am      11 UNK        -0.4279 
     65 CA         32.2216   26.6927    4.3282 C.3       11 UNK         0.1003 
     66 C          33.2887   27.7151    3.8458 C.2       11 UNK         0.5709 
     67 N          33.5464   28.7885    4.5827 N.am      11 UNK        -0.7358 
     68 O          33.8814   27.5294    2.7876 O.2       11 UNK        -0.4999 
     69 C69        32.9045   25.6187    5.2140 C.3       12 UNK        -0.0954 
     70 S70        31.9251   24.0887    5.3408 S.3       12 UNK        -0.2268 
     71 C71        33.0039   22.8983    4.4817 C.3       12 UNK         0.0203 
     72 H72        25.7128   26.3358   -0.8989 H         1 UNK         0.0888 
     73 H73        26.8504   25.9255   -2.1841 H         1 UNK         0.0888 
     74 H74        25.3047   25.0823   -2.0760 H         1 UNK         0.0888 
     75 H75        28.5897   24.9571   -1.1797 H         1 UNK         0.3017 
     76 H76        29.8801   23.5263   -0.1402 H         1 UNK         0.0873 
     77 H77        27.4415   21.7453    0.4137 H         1 UNK         0.0745 
     78 H78        28.4634   21.6491   -0.9842 H         1 UNK         0.0745 
     79 H79        31.7081   19.9966    0.2505 H         1 UNK         0.0705 
     80 H80        31.0455   21.1635   -0.8675 H         1 UNK         0.0705 
     81 H81        31.5832   21.2315    2.8797 H         1 UNK         0.1334 
     82 H82        34.1238   24.6795    2.7164 H         1 UNK         0.1417 
     83 H83        32.5667   23.0020   -0.9021 H         1 UNK         0.1562 
     84 H84        34.9429   24.5527   -0.5444 H         1 UNK         0.0748 
     85 H85        34.6306   25.7549    0.6837 H         1 UNK         0.0748 
     86 H86        32.2947   26.7774    1.0203 H         1 UNK         0.0940 
     87 H87        31.0367   26.0595    0.0841 H         1 UNK         0.0940 
     88 H88        31.1293   28.0142   -1.5316 H         1 UNK         0.0703 
     89 H89        30.4134   29.4342    0.8417 H         1 UNK         0.3081 
     90 H90        28.3585   29.4873    1.6417 H         1 UNK         0.0719 
     91 H91        26.3830   28.7856   -0.6147 H         1 UNK         0.0809 
     92 H92        26.1391   30.0057    0.6360 H         1 UNK         0.0809 
     93 H93        27.3838   30.2326   -0.5738 H         1 UNK         0.0809 
     94 H94        27.6712   26.7701    1.4975 H         1 UNK         0.2990 
     95 H95        25.7621   26.9103    4.5174 H         1 UNK         0.0690 
     96 H96        24.3082   25.1645    3.4825 H         1 UNK         0.0788 
     97 H97        24.8666   25.6174    1.8724 H         1 UNK         0.0788 
     98 H98        23.9014   26.7380    2.8224 H         1 UNK         0.0788 
     99 H99        27.8437   25.7661    2.9303 H         1 UNK         0.2993 
    100 H100       29.2276   24.2354    4.3326 H         1 UNK         0.0949 
    101 H101       28.3324   22.6482    6.0284 H         1 UNK         0.0767 
    102 H102       27.5524   21.7042    4.7633 H         1 UNK         0.0767 
    103 H103       29.3131   21.8090    4.8392 H         1 UNK         0.0767 
    104 H104       28.2629   22.2429    2.4615 H         1 UNK         0.3013 
    105 H105       33.6232   28.3274    0.9581 H         1 UNK         0.3121 
    106 H106       34.8486   30.5099   -0.5229 H         1 UNK         0.0774 
    107 H107       35.6675   29.3032    2.1704 H         1 UNK         0.0815 
    108 H108       36.6469   30.3101    1.1215 H         1 UNK         0.0815 
    109 H109       36.1889   28.6972    0.5983 H         1 UNK         0.0815 
    110 H110       32.7181   30.2234    2.2230 H         1 UNK         0.2987 
    111 H111       32.7130   33.1828    2.6349 H         1 UNK         0.0949 
    112 H112       31.6528   30.9483    4.4589 H         1 UNK         0.0806 
    113 H113       33.1206   31.8765    4.7547 H         1 UNK         0.0806 
    114 H114       31.5570   32.6731    4.7837 H         1 UNK         0.0806 
    115 H115       30.5856   34.1232    2.6278 H         1 UNK         0.3010 
    116 H116       28.8788   33.0895    0.5637 H         1 UNK         0.0829 
    117 H117       29.3135   35.5192    0.8724 H         1 UNK         0.0813 
    118 H118       27.5952   35.1861    0.9894 H         1 UNK         0.0813 
    119 H119       28.5251   35.4829    2.4508 H         1 UNK         0.0813 
    120 H120       28.8474   32.5620    3.9821 H         1 UNK         0.3038 
    121 H121       26.1343   31.3516    3.8560 H         1 UNK         0.0769 
    122 H122       27.0475   33.3341    6.0070 H         1 UNK         0.0811 
    123 H123       25.5054   32.4871    5.9608 H         1 UNK         0.0811 
    124 H124       25.8771   33.6819    4.7333 H         1 UNK         0.0811 
    125 H125       28.9778   30.2307    3.9287 H         1 UNK         0.3204 
    126 H126       28.5543   28.1364    5.7741 H         1 UNK         0.0748 
    127 H127       30.4892   28.5883    7.3299 H         1 UNK         0.0771 
    128 H128       30.7629   30.1474    6.5630 H         1 UNK         0.0771 
    129 H129       29.2987   29.8525    7.4895 H         1 UNK         0.0771 
    130 H130       30.9491   27.0104    5.9846 H         1 UNK         0.2980 
    131 H131       31.8300   26.2078    3.4313 H         1 UNK         0.0545 
    132 H132       34.2495   29.4396    4.2754 H         1 UNK         0.3459 
    133 H133       33.0803   28.9298    5.4632 H         1 UNK         0.3459 
    134 H134       33.8998   25.3678    4.8449 H         1 UNK         0.0616 
    135 H135       33.0673   26.0048    6.2219 H         1 UNK         0.0616 
    136 H136       34.0452   23.0588    4.7647 H         1 UNK         0.0634 
    137 H137       32.7529   21.8983    4.8389 H         1 UNK         0.0634 
@<TRIPOS>BOND
     1    1    2 1    
     2    1   72 1    
     3    1   73 1    
     4    1   74 1    
     5    2    3 2    
     6    2    4 am   BACKBONE|DICT|INTERRES
     7    4    5 1    
     8    4   75 1    
     9    5    6 1    
    10    5   35 1    
    11    5   76 1    
    12    6    7 1    
    13    6   77 1    
    14    6   78 1    
    15    7    8 1    
    16    8    9 1    
    17    8   79 1    
    18    8   80 1    
    19    9   10 ar   
    20    9   14 ar   
    21   10   11 ar   
    22   10   81 1    
    23   11   12 ar   
    24   11   71 1    
    25   12   13 ar   
    26   12   82 1    
    27   13   14 ar   
    28   13   15 1    
    29   14   83 1    
    30   15   16 1    
    31   15   84 1    
    32   15   85 1    
    33   16   17 1    
    34   17   18 1    
    35   17   86 1    
    36   17   87 1    
    37   18   19 1    
    38   18   37 1    
    39   18   88 1    
    40   19   20 am   BACKBONE|DICT|INTERRES
    41   19   89 1    
    42   20   21 2    
    43   20   22 1    
    44   22   23 1    
    45   22   24 1    
    46   22   90 1    
    47   23   91 1    
    48   23   92 1    
    49   23   93 1    
    50   24   25 am   BACKBONE|DICT|INTERRES
    51   24   94 1    
    52   25   26 2    
    53   25   27 1    
    54   27   28 1    
    55   27   29 1    
    56   27   95 1    
    57   28   96 1    
    58   28   97 1    
    59   28   98 1    
    60   29   30 am   BACKBONE|DICT|INTERRES
    61   29   99 1    
    62   30   31 2    
    63   30   32 1    
    64   32   33 1    
    65   32   34 1    
    66   32  100 1    
    67   33  101 1    
    68   33  102 1    
    69   33  103 1    
    70   34   35 am   BACKBONE|DICT|INTERRES
    71   34  104 1    
    72   35   36 2    
    73   37   38 2    
    74   37   39 am   BACKBONE|DICT|INTERRES
    75   39   40 1    
    76   39  105 1    
    77   40   41 1    
    78   40   42 1    
    79   40  106 1    
    80   41  107 1    
    81   41  108 1    
    82   41  109 1    
    83   42   43 2    
    84   42   44 am   BACKBONE|DICT|INTERRES
    85   44   45 1    
    86   44  110 1    
    87   45   46 1    
    88   45   47 1    
    89   45  111 1    
    90   46  112 1    
    91   46  113 1    
    92   46  114 1    
    93   47   48 2    
    94   47   49 am   BACKBONE|DICT|INTERRES
    95   49   50 1    
    96   49  115 1    
    97   50   51 1    
    98   50   52 1    
    99   50  116 1    
   100   51  117 1    
   101   51  118 1    
   102   51  119 1    
   103   52   53 2    
   104   52   54 am   BACKBONE|DICT|INTERRES
   105   54   55 1    
   106   54  120 1    
   107   55   56 1    
   108   55   57 1    
   109   55  121 1    
   110   56  122 1    
   111   56  123 1    
   112   56  124 1    
   113   57   58 2    
   114   57   59 am   BACKBONE|DICT|INTERRES
   115   59   60 1    
   116   59  125 1    
   117   60   61 1    
   118   60   62 1    
   119   60  126 1    
   120   61  127 1    
   121   61  128 1    
   122   61  129 1    
   123   62   63 2    
   124   62   64 am   BACKBONE|DICT|INTERRES
   125   64   65 1    
   126   64  130 1    
   127   65   66 1    
   128   65   69 1    
   129   65  131 1    
   130   66   67 am   BACKBONE|DICT|INTERRES
   131   66   68 2    
   132   67  132 1    
   133   67  133 1    
   134   69   70 1    
   135   69  134 1    
   136   69  135 1    
   137   70   71 1    
   138   71  136 1    
   139   71  137 1    
@<TRIPOS>SUBSTRUCTURE
     1 UNK         1 GROUP             0       ****    0 ROOT    
