@<TRIPOS>MOLECULE
3R136
137   139    1
SMALL
USER_CHARGES


@<TRIPOS>ATOM
      1 CA         27.3026   21.7430   -1.5308 C.3       0 UNK        -0.1979 
      2 C          27.6620   22.7530   -0.4528 C.2       0 UNK         0.4864 
      3 O          27.7336   23.9491   -0.7384 O.2       0 UNK        -0.5359 
      4 N          27.8716   22.2870    0.7863 N.am      1 UNK        -0.4318 
      5 CA         28.2780   23.0535    1.9758 C.3       1 UNK         0.0824 
      6 C6         28.7928   22.1085    3.0959 C.3       12 UNK        -0.0944 
      7 S7         30.2061   21.0745    2.5800 S.3       12 UNK        -0.2672 
      8 C8         31.6372   21.9415    3.3242 C.3       12 UNK         0.0333 
      9 C9         32.2466   23.0759    2.4929 C.ar      12 UNK        -0.0807 
     10 C10        33.1340   23.9608    3.1178 C.ar      12 UNK        -0.0894 
     11 C11        33.7736   24.9726    2.3924 C.ar      12 UNK        -0.0804 
     12 C12        33.5218   25.0970    1.0243 C.ar      12 UNK        -0.0824 
     13 C13        32.6220   24.2387    0.3876 C.ar      12 UNK        -0.0762 
     14 C14        31.9957   23.2279    1.1226 C.ar      12 UNK        -0.0782 
     15 C15        32.3333   24.3909   -1.0999 C.3       12 UNK         0.0230 
     16 S16        31.6780   26.0376   -1.5241 S.3       12 UNK        -0.2608 
     17 C17        30.1747   26.1360   -0.4972 C.3       12 UNK        -0.0989 
     18 CA         30.1285   27.4608    0.3167 C.3       5 UNK         0.0716 
     19 N          29.0866   28.3467   -0.1802 N.am      5 UNK        -0.4135 
     20 C          29.1663   29.1898   -1.2129 C.2       4 UNK         0.5031 
     21 O          30.1993   29.4207   -1.8428 O.2       4 UNK        -0.5229 
     22 CA         27.8349   29.8581   -1.6143 C.3       4 UNK         0.0329 
     23 CB         27.9062   30.5912   -2.9707 C.3       4 UNK        -0.2001 
     24 N          26.7190   28.8988   -1.5866 N.am      4 UNK        -0.4303 
     25 C          26.6114   27.7641   -2.2964 C.2       3 UNK         0.5044 
     26 O          27.4078   27.4136   -3.1686 O.2       3 UNK        -0.5152 
     27 CA         25.4341   26.8459   -1.9222 C.3       3 UNK         0.0319 
     28 CB         25.1842   25.7498   -2.9752 C.3       3 UNK        -0.2001 
     29 N          25.6538   26.2012   -0.6251 N.am      3 UNK        -0.4354 
     30 C          25.4753   26.7849    0.5704 C.2       2 UNK         0.4964 
     31 O          25.1522   27.9658    0.7011 O.2       2 UNK        -0.5047 
     32 CA         25.6750   25.9220    1.8255 C.3       2 UNK         0.0288 
     33 CB         24.3200   25.3234    2.2577 C.3       2 UNK        -0.2113 
     34 N          26.6756   24.8776    1.5978 N.am      2 UNK        -0.4145 
     35 C          27.1748   24.0158    2.4892 C.2       1 UNK         0.5006 
     36 O          26.8072   23.9631    3.6645 O.2       1 UNK        -0.5103 
     37 C          29.8380   27.2412    1.8108 C.2       5 UNK         0.5055 
     38 O          28.7129   27.4917    2.2566 O.2       5 UNK        -0.5220 
     39 N          30.8563   26.7996    2.5605 N.am      6 UNK        -0.4450 
     40 CA         30.8608   26.6421    4.0199 C.3       6 UNK         0.0367 
     41 CB         29.9474   25.4793    4.4511 C.3       6 UNK        -0.1929 
     42 C          30.5603   27.9777    4.7194 C.2       6 UNK         0.5070 
     43 O          31.2650   28.9552    4.4632 O.2       6 UNK        -0.5237 
     44 N          29.5206   28.0216    5.5624 N.am      7 UNK        -0.4739 
     45 CA         29.0720   29.2134    6.2887 C.3       7 UNK         0.0276 
     46 CB         27.8970   28.8384    7.2050 C.3       7 UNK        -0.1927 
     47 C          28.6888   30.3930    5.3777 C.2       7 UNK         0.5013 
     48 O          28.9163   31.5400    5.7607 O.2       7 UNK        -0.5193 
     49 N          28.1717   30.1003    4.1747 N.am      8 UNK        -0.4253 
     50 CA         27.8258   31.1056    3.1648 C.3       8 UNK         0.0242 
     51 CB         26.8718   30.4878    2.1315 C.3       8 UNK        -0.2000 
     52 C          29.0526   31.7386    2.4796 C.2       8 UNK         0.4948 
     53 O          28.9220   32.8280    1.9215 O.2       8 UNK        -0.5275 
     54 N          30.2133   31.0704    2.5446 N.am      9 UNK        -0.4246 
     55 CA         31.5062   31.5841    2.0789 C.3       9 UNK         0.0261 
     56 CB         32.1958   30.4958    1.2410 C.3       9 UNK        -0.1959 
     57 C          32.4135   32.0252    3.2438 C.2       9 UNK         0.5033 
     58 O          33.5246   32.4919    2.9889 O.2       9 UNK        -0.5390 
     59 N          31.9423   31.8556    4.4892 N.am      10 UNK        -0.4215 
     60 CA         32.6474   32.0677    5.7576 C.3       10 UNK         0.0240 
     61 CB         32.9689   33.5632    5.9675 C.3       10 UNK        -0.1982 
     62 C          33.8777   31.1528    5.9457 C.2       10 UNK         0.4970 
     63 O          34.8145   31.5424    6.6456 O.2       10 UNK        -0.4916 
     64 N          33.8496   29.9543    5.3454 N.am      11 UNK        -0.4279 
     65 CA         34.8936   28.9219    5.4691 C.3       11 UNK         0.1003 
     66 C          34.4952   27.7375    6.3964 C.2       11 UNK         0.5709 
     67 N          33.3019   27.7207    6.9796 N.am      11 UNK        -0.7358 
     68 O          35.2937   26.8293    6.6136 O.2       11 UNK        -0.4999 
     69 C69        35.4243   28.4619    4.0829 C.3       12 UNK        -0.0954 
     70 S70        34.1832   27.6445    3.0245 S.3       12 UNK        -0.2268 
     71 C71        34.7546   25.9158    3.0765 C.3       12 UNK         0.0203 
     72 H72        28.0389   21.7767   -2.3332 H         1 UNK         0.0888 
     73 H73        27.2695   20.7252   -1.1423 H         1 UNK         0.0888 
     74 H74        26.3264   21.9783   -1.9538 H         1 UNK         0.0888 
     75 H75        27.7800   21.2937    0.9458 H         1 UNK         0.3017 
     76 H76        29.1128   23.6924    1.6832 H         1 UNK         0.0873 
     77 H77        29.0689   22.6624    3.9929 H         1 UNK         0.0745 
     78 H78        27.9921   21.4361    3.4099 H         1 UNK         0.0745 
     79 H79        31.3616   22.3091    4.3136 H         1 UNK         0.0705 
     80 H80        32.4198   21.1997    3.4882 H         1 UNK         0.0705 
     81 H81        33.3410   23.8499    4.1738 H         1 UNK         0.1334 
     82 H82        34.0181   25.8721    0.4554 H         1 UNK         0.1417 
     83 H83        31.3240   22.5521    0.6129 H         1 UNK         0.1562 
     84 H84        31.6234   23.6355   -1.4410 H         1 UNK         0.0748 
     85 H85        33.2543   24.2224   -1.6594 H         1 UNK         0.0748 
     86 H86        30.1138   25.2557    0.1431 H         1 UNK         0.0940 
     87 H87        29.3151   26.0504   -1.1651 H         1 UNK         0.0940 
     88 H88        31.0850   27.9821    0.2564 H         1 UNK         0.0703 
     89 H89        28.2192   28.2641    0.3336 H         1 UNK         0.3081 
     90 H90        27.6240   30.6062   -0.8492 H         1 UNK         0.0719 
     91 H91        28.1744   29.9166   -3.7843 H         1 UNK         0.0809 
     92 H92        26.9531   31.0569   -3.2207 H         1 UNK         0.0809 
     93 H93        28.6567   31.3823   -2.9460 H         1 UNK         0.0809 
     94 H94        26.0266   29.0417   -0.8579 H         1 UNK         0.2990 
     95 H95        24.5351   27.4638   -1.8662 H         1 UNK         0.0690 
     96 H96        24.3014   25.1589   -2.7305 H         1 UNK         0.0788 
     97 H97        26.0317   25.0672   -3.0572 H         1 UNK         0.0788 
     98 H98        25.0184   26.1856   -3.9614 H         1 UNK         0.0788 
     99 H99        25.9665   25.2403   -0.6687 H         1 UNK         0.2993 
    100 H100       26.0469   26.5764    2.6169 H         1 UNK         0.0949 
    101 H101       24.3815   24.8395    3.2320 H         1 UNK         0.0767 
    102 H102       23.5578   26.0997    2.3404 H         1 UNK         0.0767 
    103 H103       23.9595   24.5863    1.5393 H         1 UNK         0.0767 
    104 H104       27.0704   24.8190    0.6604 H         1 UNK         0.3013 
    105 H105       31.7500   26.6360    2.1151 H         1 UNK         0.3121 
    106 H106       31.8780   26.3778    4.3082 H         1 UNK         0.0774 
    107 H107       30.0465   25.2685    5.5166 H         1 UNK         0.0815 
    108 H108       28.8962   25.6774    4.2428 H         1 UNK         0.0815 
    109 H109       30.2275   24.5732    3.9208 H         1 UNK         0.0815 
    110 H110       28.9842   27.1773    5.7011 H         1 UNK         0.2987 
    111 H111       29.9020   29.5468    6.9154 H         1 UNK         0.0949 
    112 H112       27.0439   28.4652    6.6369 H         1 UNK         0.0806 
    113 H113       28.1834   28.0716    7.9251 H         1 UNK         0.0806 
    114 H114       27.5554   29.7034    7.7756 H         1 UNK         0.0806 
    115 H115       28.0597   29.1282    3.9142 H         1 UNK         0.3010 
    116 H116       27.2906   31.9153    3.6663 H         1 UNK         0.0829 
    117 H117       27.3315   29.6560    1.6025 H         1 UNK         0.0813 
    118 H118       25.9615   30.1170    2.6033 H         1 UNK         0.0813 
    119 H119       26.5697   31.2253    1.3869 H         1 UNK         0.0813 
    120 H120       30.2425   30.1866    3.0404 H         1 UNK         0.3038 
    121 H121       31.3638   32.4596    1.4423 H         1 UNK         0.0769 
    122 H122       32.3035   29.5672    1.8008 H         1 UNK         0.0811 
    123 H123       33.1936   30.8055    0.9272 H         1 UNK         0.0811 
    124 H124       31.6303   30.2857    0.3348 H         1 UNK         0.0811 
    125 H125       31.0140   31.4664    4.5813 H         1 UNK         0.3204 
    126 H126       31.9427   31.7750    6.5373 H         1 UNK         0.0748 
    127 H127       32.0794   34.1808    5.8420 H         1 UNK         0.0771 
    128 H128       33.3477   33.7460    6.9739 H         1 UNK         0.0771 
    129 H129       33.7254   33.9176    5.2668 H         1 UNK         0.0771 
    130 H130       33.0209   29.6805    4.8242 H         1 UNK         0.2980 
    131 H131       35.7543   29.3627    5.9742 H         1 UNK         0.0545 
    132 H132       33.0658   26.9579    7.5938 H         1 UNK         0.3459 
    133 H133       32.6480   28.4694    6.8229 H         1 UNK         0.3459 
    134 H134       36.2880   27.8062    4.2055 H         1 UNK         0.0616 
    135 H135       35.7970   29.3296    3.5366 H         1 UNK         0.0616 
    136 H136       35.7263   25.8436    2.5862 H         1 UNK         0.0634 
    137 H137       34.9064   25.6202    4.1154 H         1 UNK         0.0634 
@<TRIPOS>BOND
     1    1    2 1    
     2    1   72 1    
     3    1   73 1    
     4    1   74 1    
     5    2    3 2    
     6    2    4 am   BACKBONE|DICT|INTERRES
     7    4    5 1    
     8    4   75 1    
     9    5    6 1    
    10    5   35 1    
    11    5   76 1    
    12    6    7 1    
    13    6   77 1    
    14    6   78 1    
    15    7    8 1    
    16    8    9 1    
    17    8   79 1    
    18    8   80 1    
    19    9   10 ar   
    20    9   14 ar   
    21   10   11 ar   
    22   10   81 1    
    23   11   12 ar   
    24   11   71 1    
    25   12   13 ar   
    26   12   82 1    
    27   13   14 ar   
    28   13   15 1    
    29   14   83 1    
    30   15   16 1    
    31   15   84 1    
    32   15   85 1    
    33   16   17 1    
    34   17   18 1    
    35   17   86 1    
    36   17   87 1    
    37   18   19 1    
    38   18   37 1    
    39   18   88 1    
    40   19   20 am   BACKBONE|DICT|INTERRES
    41   19   89 1    
    42   20   21 2    
    43   20   22 1    
    44   22   23 1    
    45   22   24 1    
    46   22   90 1    
    47   23   91 1    
    48   23   92 1    
    49   23   93 1    
    50   24   25 am   BACKBONE|DICT|INTERRES
    51   24   94 1    
    52   25   26 2    
    53   25   27 1    
    54   27   28 1    
    55   27   29 1    
    56   27   95 1    
    57   28   96 1    
    58   28   97 1    
    59   28   98 1    
    60   29   30 am   BACKBONE|DICT|INTERRES
    61   29   99 1    
    62   30   31 2    
    63   30   32 1    
    64   32   33 1    
    65   32   34 1    
    66   32  100 1    
    67   33  101 1    
    68   33  102 1    
    69   33  103 1    
    70   34   35 am   BACKBONE|DICT|INTERRES
    71   34  104 1    
    72   35   36 2    
    73   37   38 2    
    74   37   39 am   BACKBONE|DICT|INTERRES
    75   39   40 1    
    76   39  105 1    
    77   40   41 1    
    78   40   42 1    
    79   40  106 1    
    80   41  107 1    
    81   41  108 1    
    82   41  109 1    
    83   42   43 2    
    84   42   44 am   BACKBONE|DICT|INTERRES
    85   44   45 1    
    86   44  110 1    
    87   45   46 1    
    88   45   47 1    
    89   45  111 1    
    90   46  112 1    
    91   46  113 1    
    92   46  114 1    
    93   47   48 2    
    94   47   49 am   BACKBONE|DICT|INTERRES
    95   49   50 1    
    96   49  115 1    
    97   50   51 1    
    98   50   52 1    
    99   50  116 1    
   100   51  117 1    
   101   51  118 1    
   102   51  119 1    
   103   52   53 2    
   104   52   54 am   BACKBONE|DICT|INTERRES
   105   54   55 1    
   106   54  120 1    
   107   55   56 1    
   108   55   57 1    
   109   55  121 1    
   110   56  122 1    
   111   56  123 1    
   112   56  124 1    
   113   57   58 2    
   114   57   59 am   BACKBONE|DICT|INTERRES
   115   59   60 1    
   116   59  125 1    
   117   60   61 1    
   118   60   62 1    
   119   60  126 1    
   120   61  127 1    
   121   61  128 1    
   122   61  129 1    
   123   62   63 2    
   124   62   64 am   BACKBONE|DICT|INTERRES
   125   64   65 1    
   126   64  130 1    
   127   65   66 1    
   128   65   69 1    
   129   65  131 1    
   130   66   67 am   BACKBONE|DICT|INTERRES
   131   66   68 2    
   132   67  132 1    
   133   67  133 1    
   134   69   70 1    
   135   69  134 1    
   136   69  135 1    
   137   70   71 1    
   138   71  136 1    
   139   71  137 1    
@<TRIPOS>SUBSTRUCTURE
     1 UNK         1 GROUP             0       ****    0 ROOT    
