@<TRIPOS>MOLECULE
3R136
137   139    1
SMALL
USER_CHARGES


@<TRIPOS>ATOM
      1 CA         27.1550   21.4909    1.1852 C.3       0 UNK        -0.1979 
      2 C          27.7047   21.8422   -0.1864 C.2       0 UNK         0.4864 
      3 O          26.9444   21.8866   -1.1540 O.2       0 UNK        -0.5359 
      4 N          29.0210   22.0790   -0.2785 N.am      1 UNK        -0.4318 
      5 CA         29.7417   22.3326   -1.5352 C.3       1 UNK         0.0824 
      6 C6         31.2806   22.2521   -1.3717 C.3       12 UNK        -0.0944 
      7 S7         31.8247   20.7494   -0.4864 S.3       12 UNK        -0.2672 
      8 C8         32.9756   21.4256    0.7547 C.3       12 UNK         0.0333 
      9 C9         32.3044   22.3837    1.7318 C.ar      12 UNK        -0.0807 
     10 C10        32.5668   23.7560    1.6595 C.ar      12 UNK        -0.0894 
     11 C11        31.9874   24.6417    2.5722 C.ar      12 UNK        -0.0804 
     12 C12        31.1569   24.1387    3.5762 C.ar      12 UNK        -0.0824 
     13 C13        30.8689   22.7728    3.6520 C.ar      12 UNK        -0.0762 
     14 C14        31.4472   21.8987    2.7251 C.ar      12 UNK        -0.0782 
     15 C15        29.9590   22.2389    4.7518 C.3       12 UNK         0.0230 
     16 S16        28.1929   22.5213    4.3924 S.3       12 UNK        -0.2608 
     17 C17        27.9702   24.2630    4.8846 C.3       12 UNK        -0.0989 
     18 CA         27.8529   25.2229    3.6645 C.3       5 UNK         0.0716 
     19 N          26.6556   25.0472    2.8405 N.am      5 UNK        -0.4135 
     20 C          25.3731   25.0737    3.2259 C.2       4 UNK         0.5031 
     21 O          24.9966   25.1974    4.3927 O.2       4 UNK        -0.5229 
     22 CA         24.3358   24.9314    2.0898 C.3       4 UNK         0.0329 
     23 CB         22.8874   25.1951    2.5559 C.3       4 UNK        -0.2001 
     24 N          24.6604   25.7461    0.9092 N.am      4 UNK        -0.4303 
     25 C          24.8198   27.0786    0.8737 C.2       3 UNK         0.5044 
     26 O          24.6581   27.8154    1.8479 O.2       3 UNK        -0.5152 
     27 CA         25.2359   27.6837   -0.4851 C.3       3 UNK         0.0319 
     28 CB         25.5878   29.1810   -0.3859 C.3       3 UNK        -0.2001 
     29 N          26.3067   26.9820   -1.2143 N.am      3 UNK        -0.4354 
     30 C          27.4242   26.4064   -0.7424 C.2       2 UNK         0.4964 
     31 O          27.6830   26.2189    0.4498 O.2       2 UNK        -0.5047 
     32 CA         28.4392   25.9498   -1.7933 C.3       2 UNK         0.0288 
     33 CB         29.5909   26.9623   -1.9208 C.3       2 UNK        -0.2113 
     34 N          28.9618   24.6555   -1.3773 N.am      2 UNK        -0.4145 
     35 C          29.3458   23.6695   -2.1964 C.2       1 UNK         0.5006 
     36 O          29.3877   23.7743   -3.4239 O.2       1 UNK        -0.5103 
     37 C          28.0479   26.7037    4.0390 C.2       5 UNK         0.5055 
     38 O          28.0573   27.0471    5.2221 O.2       5 UNK        -0.5220 
     39 N          28.2337   27.5513    3.0210 N.am      6 UNK        -0.4450 
     40 CA         28.6342   28.9473    3.1665 C.3       6 UNK         0.0367 
     41 CB         27.3979   29.8406    3.3686 C.3       6 UNK        -0.1929 
     42 C          29.4201   29.3552    1.9172 C.2       6 UNK         0.5070 
     43 O          28.9728   29.0686    0.8079 O.2       6 UNK        -0.5237 
     44 N          30.5584   30.0311    2.1048 N.am      7 UNK        -0.4739 
     45 CA         31.3848   30.5728    1.0198 C.3       7 UNK         0.0276 
     46 CB         32.7145   29.7990    0.9625 C.3       7 UNK        -0.1927 
     47 C          31.5968   32.0895    1.1751 C.2       7 UNK         0.5013 
     48 O          32.4979   32.6415    0.5415 O.2       7 UNK        -0.5193 
     49 N          30.7790   32.7351    2.0231 N.am      8 UNK        -0.4253 
     50 CA         30.7509   34.1582    2.3954 C.3       8 UNK         0.0242 
     51 CB         30.4619   35.0610    1.1792 C.3       8 UNK        -0.2000 
     52 C          32.0002   34.6254    3.1620 C.2       8 UNK         0.4948 
     53 O          31.8768   35.1057    4.2887 O.2       8 UNK        -0.5275 
     54 N          33.1766   34.4550    2.5503 N.am      9 UNK        -0.4246 
     55 CA         34.4886   34.7376    3.1346 C.3       9 UNK         0.0261 
     56 CB         35.4743   35.0519    1.9964 C.3       9 UNK        -0.1959 
     57 C          35.0193   33.5805    4.0025 C.2       9 UNK         0.5033 
     58 O          36.0283   33.7619    4.6860 O.2       9 UNK        -0.5390 
     59 N          34.3582   32.4179    3.9557 N.am      10 UNK        -0.4215 
     60 CA         34.7138   31.2001    4.6746 C.3       10 UNK         0.0240 
     61 CB         35.7776   30.4197    3.8767 C.3       10 UNK        -0.1982 
     62 C          33.4525   30.3588    4.9090 C.2       10 UNK         0.4970 
     63 O          32.3909   30.6662    4.3565 O.2       10 UNK        -0.4916 
     64 N          33.6101   29.3092    5.7234 N.am      11 UNK        -0.4279 
     65 CA         32.5881   28.3149    6.0995 C.3       11 UNK         0.1003 
     66 C          31.4762   28.8395    7.0586 C.2       11 UNK         0.5709 
     67 N          31.5304   30.0777    7.5346 N.am      11 UNK        -0.7358 
     68 O          30.5707   28.0932    7.4198 O.2       11 UNK        -0.4999 
     69 C69        31.9981   27.5376    4.8867 C.3       12 UNK        -0.0954 
     70 S70        33.2678   26.7707    3.8237 S.3       12 UNK        -0.2268 
     71 C71        32.2446   26.1389    2.4566 C.3       12 UNK         0.0203 
     72 H72        27.9365   21.0998    1.8359 H         1 UNK         0.0888 
     73 H73        26.7169   22.3700    1.6553 H         1 UNK         0.0888 
     74 H74        26.3816   20.7281    1.1002 H         1 UNK         0.0888 
     75 H75        29.6027   22.0101    0.5452 H         1 UNK         0.3017 
     76 H76        29.4459   21.5429   -2.2296 H         1 UNK         0.0873 
     77 H77        31.7613   22.2521   -2.3519 H         1 UNK         0.0745 
     78 H78        31.6558   23.1385   -0.8601 H         1 UNK         0.0745 
     79 H79        33.8036   21.9153    0.2395 H         1 UNK         0.0705 
     80 H80        33.4153   20.5971    1.3120 H         1 UNK         0.0705 
     81 H81        33.2247   24.1359    0.8897 H         1 UNK         0.1334 
     82 H82        30.7273   24.8158    4.2970 H         1 UNK         0.1417 
     83 H83        31.2435   20.8376    2.7824 H         1 UNK         0.1562 
     84 H84        30.2248   22.6864    5.7105 H         1 UNK         0.0748 
     85 H85        30.1139   21.1658    4.8736 H         1 UNK         0.0748 
     86 H86        28.8043   24.5501    5.5263 H         1 UNK         0.0940 
     87 H87        27.0921   24.3331    5.5266 H         1 UNK         0.0940 
     88 H88        28.6769   24.9914    2.9902 H         1 UNK         0.0703 
     89 H89        26.8361   25.0822    1.8433 H         1 UNK         0.3081 
     90 H90        24.3882   23.8908    1.7659 H         1 UNK         0.0719 
     91 H91        22.7637   26.2071    2.9429 H         1 UNK         0.0809 
     92 H92        22.1767   25.0582    1.7410 H         1 UNK         0.0809 
     93 H93        22.6020   24.5066    3.3522 H         1 UNK         0.0809 
     94 H94        24.8220   25.2350    0.0523 H         1 UNK         0.2990 
     95 H95        24.3482   27.6068   -1.1147 H         1 UNK         0.0690 
     96 H96        25.7745   29.6119   -1.3694 H         1 UNK         0.0788 
     97 H97        26.4779   29.3397    0.2201 H         1 UNK         0.0788 
     98 H98        24.7762   29.7524    0.0663 H         1 UNK         0.0788 
     99 H99        26.2097   27.0211   -2.2195 H         1 UNK         0.2993 
    100 H100       27.9351   25.8485   -2.7571 H         1 UNK         0.0949 
    101 H101       30.1254   27.0827   -0.9770 H         1 UNK         0.0767 
    102 H102       30.3114   26.6524   -2.6778 H         1 UNK         0.0767 
    103 H103       29.2164   27.9458   -2.2079 H         1 UNK         0.0767 
    104 H104       28.9248   24.4849   -0.3812 H         1 UNK         0.3013 
    105 H105       28.1792   27.2152    2.0599 H         1 UNK         0.3121 
    106 H106       29.2819   29.0514    4.0390 H         1 UNK         0.0774 
    107 H107       27.6790   30.8919    3.4375 H         1 UNK         0.0815 
    108 H108       26.6907   29.7415    2.5451 H         1 UNK         0.0815 
    109 H109       26.8716   29.5839    4.2880 H         1 UNK         0.0815 
    110 H110       30.9084   30.2022    3.0440 H         1 UNK         0.2987 
    111 H111       30.8859   30.4472    0.0564 H         1 UNK         0.0949 
    112 H112       33.2689   29.8795    1.8958 H         1 UNK         0.0806 
    113 H113       32.5420   28.7410    0.7683 H         1 UNK         0.0806 
    114 H114       33.3578   30.1703    0.1638 H         1 UNK         0.0806 
    115 H115       30.0917   32.1640    2.4938 H         1 UNK         0.3010 
    116 H116       29.9090   34.2651    3.0816 H         1 UNK         0.0829 
    117 H117       29.5263   34.7821    0.6944 H         1 UNK         0.0813 
    118 H118       30.3693   36.1044    1.4838 H         1 UNK         0.0813 
    119 H119       31.2524   35.0131    0.4299 H         1 UNK         0.0813 
    120 H120       33.1613   33.9935    1.6425 H         1 UNK         0.3038 
    121 H121       34.4117   35.6189    3.7750 H         1 UNK         0.0769 
    122 H122       36.4610   35.3010    2.3896 H         1 UNK         0.0811 
    123 H123       35.1386   35.9041    1.4053 H         1 UNK         0.0811 
    124 H124       35.5960   34.2026    1.3227 H         1 UNK         0.0811 
    125 H125       33.4920   32.3614    3.4366 H         1 UNK         0.3204 
    126 H126       35.1176   31.4684    5.6533 H         1 UNK         0.0748 
    127 H127       35.4172   30.1419    2.8861 H         1 UNK         0.0771 
    128 H128       36.6845   31.0102    3.7451 H         1 UNK         0.0771 
    129 H129       36.0676   29.5006    4.3871 H         1 UNK         0.0771 
    130 H130       34.5190   29.1559    6.1352 H         1 UNK         0.2980 
    131 H131       33.1298   27.5847    6.7016 H         1 UNK         0.0545 
    132 H132       32.2696   30.7016    7.2567 H         1 UNK         0.3459 
    133 H133       30.8131   30.3927    8.1683 H         1 UNK         0.3459 
    134 H134       31.3276   26.7522    5.2351 H         1 UNK         0.0616 
    135 H135       31.3957   28.2025    4.2707 H         1 UNK         0.0616 
    136 H136       31.2941   26.6725    2.4116 H         1 UNK         0.0634 
    137 H137       32.7570   26.3618    1.5198 H         1 UNK         0.0634 
@<TRIPOS>BOND
     1    1    2 1    
     2    1   72 1    
     3    1   73 1    
     4    1   74 1    
     5    2    3 2    
     6    2    4 am   BACKBONE|DICT|INTERRES
     7    4    5 1    
     8    4   75 1    
     9    5    6 1    
    10    5   35 1    
    11    5   76 1    
    12    6    7 1    
    13    6   77 1    
    14    6   78 1    
    15    7    8 1    
    16    8    9 1    
    17    8   79 1    
    18    8   80 1    
    19    9   10 ar   
    20    9   14 ar   
    21   10   11 ar   
    22   10   81 1    
    23   11   12 ar   
    24   11   71 1    
    25   12   13 ar   
    26   12   82 1    
    27   13   14 ar   
    28   13   15 1    
    29   14   83 1    
    30   15   16 1    
    31   15   84 1    
    32   15   85 1    
    33   16   17 1    
    34   17   18 1    
    35   17   86 1    
    36   17   87 1    
    37   18   19 1    
    38   18   37 1    
    39   18   88 1    
    40   19   20 am   BACKBONE|DICT|INTERRES
    41   19   89 1    
    42   20   21 2    
    43   20   22 1    
    44   22   23 1    
    45   22   24 1    
    46   22   90 1    
    47   23   91 1    
    48   23   92 1    
    49   23   93 1    
    50   24   25 am   BACKBONE|DICT|INTERRES
    51   24   94 1    
    52   25   26 2    
    53   25   27 1    
    54   27   28 1    
    55   27   29 1    
    56   27   95 1    
    57   28   96 1    
    58   28   97 1    
    59   28   98 1    
    60   29   30 am   BACKBONE|DICT|INTERRES
    61   29   99 1    
    62   30   31 2    
    63   30   32 1    
    64   32   33 1    
    65   32   34 1    
    66   32  100 1    
    67   33  101 1    
    68   33  102 1    
    69   33  103 1    
    70   34   35 am   BACKBONE|DICT|INTERRES
    71   34  104 1    
    72   35   36 2    
    73   37   38 2    
    74   37   39 am   BACKBONE|DICT|INTERRES
    75   39   40 1    
    76   39  105 1    
    77   40   41 1    
    78   40   42 1    
    79   40  106 1    
    80   41  107 1    
    81   41  108 1    
    82   41  109 1    
    83   42   43 2    
    84   42   44 am   BACKBONE|DICT|INTERRES
    85   44   45 1    
    86   44  110 1    
    87   45   46 1    
    88   45   47 1    
    89   45  111 1    
    90   46  112 1    
    91   46  113 1    
    92   46  114 1    
    93   47   48 2    
    94   47   49 am   BACKBONE|DICT|INTERRES
    95   49   50 1    
    96   49  115 1    
    97   50   51 1    
    98   50   52 1    
    99   50  116 1    
   100   51  117 1    
   101   51  118 1    
   102   51  119 1    
   103   52   53 2    
   104   52   54 am   BACKBONE|DICT|INTERRES
   105   54   55 1    
   106   54  120 1    
   107   55   56 1    
   108   55   57 1    
   109   55  121 1    
   110   56  122 1    
   111   56  123 1    
   112   56  124 1    
   113   57   58 2    
   114   57   59 am   BACKBONE|DICT|INTERRES
   115   59   60 1    
   116   59  125 1    
   117   60   61 1    
   118   60   62 1    
   119   60  126 1    
   120   61  127 1    
   121   61  128 1    
   122   61  129 1    
   123   62   63 2    
   124   62   64 am   BACKBONE|DICT|INTERRES
   125   64   65 1    
   126   64  130 1    
   127   65   66 1    
   128   65   69 1    
   129   65  131 1    
   130   66   67 am   BACKBONE|DICT|INTERRES
   131   66   68 2    
   132   67  132 1    
   133   67  133 1    
   134   69   70 1    
   135   69  134 1    
   136   69  135 1    
   137   70   71 1    
   138   71  136 1    
   139   71  137 1    
@<TRIPOS>SUBSTRUCTURE
     1 UNK         1 GROUP             0       ****    0 ROOT    
