@<TRIPOS>MOLECULE
3R136
137   139    1
SMALL
USER_CHARGES


@<TRIPOS>ATOM
      1 CA         28.3397   20.7364   -1.8320 C.3       0 UNK        -0.1979 
      2 C          28.5116   20.3647   -0.3608 C.2       0 UNK         0.4864 
      3 O          28.1318   19.2613    0.0275 O.2       0 UNK        -0.5359 
      4 N          29.0772   21.2303    0.4948 N.am      1 UNK        -0.4318 
      5 CA         29.5505   22.5942    0.2097 C.3       1 UNK         0.0824 
      6 C6         30.4411   23.1416    1.3491 C.3       12 UNK        -0.0944 
      7 S7         31.9266   22.1158    1.6152 S.3       12 UNK        -0.2672 
      8 C8         31.8919   21.8690    3.4202 C.3       12 UNK         0.0333 
      9 C9         32.1595   23.1705    4.1621 C.ar      12 UNK        -0.0807 
     10 C10        33.4448   23.7165    4.1638 C.ar      12 UNK        -0.0894 
     11 C11        33.7021   24.9203    4.8221 C.ar      12 UNK        -0.0804 
     12 C12        32.6574   25.5849    5.4710 C.ar      12 UNK        -0.0824 
     13 C13        31.3606   25.0597    5.4725 C.ar      12 UNK        -0.0762 
     14 C14        31.1282   23.8321    4.8365 C.ar      12 UNK        -0.0782 
     15 C15        30.2618   25.8442    6.1951 C.3       12 UNK         0.0230 
     16 S16        28.5340   25.4403    5.7430 S.3       12 UNK        -0.2608 
     17 C17        28.4460   25.7274    3.9396 C.3       12 UNK        -0.0989 
     18 CA         28.8596   27.1376    3.4558 C.3       5 UNK         0.0716 
     19 N          29.0330   27.1680    2.0037 N.am      5 UNK        -0.4135 
     20 C          29.6507   28.1505    1.3360 C.2       4 UNK         0.5031 
     21 O          30.1891   29.1123    1.8801 O.2       4 UNK        -0.5229 
     22 CA         29.6299   28.0642   -0.1974 C.3       4 UNK         0.0329 
     23 CB         30.7812   27.1828   -0.7062 C.3       4 UNK        -0.2001 
     24 N          28.3481   27.5683   -0.7087 N.am      4 UNK        -0.4303 
     25 C          27.2002   28.2587   -0.6179 C.2       3 UNK         0.5044 
     26 O          27.1198   29.3833   -0.1275 O.2       3 UNK        -0.5152 
     27 CA         25.9136   27.5774   -1.1129 C.3       3 UNK         0.0319 
     28 CB         25.6987   27.8620   -2.6075 C.3       3 UNK        -0.2001 
     29 N          25.8666   26.1328   -0.8824 N.am      3 UNK        -0.4354 
     30 C          26.0089   25.5137    0.2983 C.2       2 UNK         0.4964 
     31 O          26.2277   26.0987    1.3608 O.2       2 UNK        -0.5047 
     32 CA         25.9271   23.9751    0.2890 C.3       2 UNK         0.0288 
     33 CB         25.2863   23.3930   -0.9921 C.3       2 UNK        -0.2113 
     34 N          27.2227   23.3253    0.5254 N.am      2 UNK        -0.4145 
     35 C          28.3941   23.5726   -0.0860 C.2       1 UNK         0.5006 
     36 O          28.5825   24.4972   -0.8784 O.2       1 UNK        -0.5103 
     37 C          27.8732   28.2329    3.9018 C.2       5 UNK         0.5055 
     38 O          28.1989   29.0121    4.8007 O.2       5 UNK        -0.5220 
     39 N          26.7162   28.2955    3.2221 N.am      6 UNK        -0.4450 
     40 CA         25.6420   29.2656    3.4523 C.3       6 UNK         0.0367 
     41 CB         24.4603   28.9552    2.5215 C.3       6 UNK        -0.1929 
     42 C          26.0826   30.7305    3.2930 C.2       6 UNK         0.5070 
     43 O          25.6459   31.5763    4.0733 O.2       6 UNK        -0.5237 
     44 N          26.9825   31.0053    2.3386 N.am      7 UNK        -0.4739 
     45 CA         27.6195   32.3074    2.1027 C.3       7 UNK         0.0276 
     46 CB         28.1672   32.3355    0.6635 C.3       7 UNK        -0.1927 
     47 C          28.7026   32.6678    3.1465 C.2       7 UNK         0.5013 
     48 O          29.7385   33.2243    2.7807 O.2       7 UNK        -0.5193 
     49 N          28.4403   32.3560    4.4241 N.am      8 UNK        -0.4253 
     50 CA         29.2805   32.5853    5.6041 C.3       8 UNK         0.0242 
     51 CB         29.3451   34.0927    5.9321 C.3       8 UNK        -0.2000 
     52 C          30.6719   31.9312    5.4931 C.2       8 UNK         0.4948 
     53 O          31.6768   32.5826    5.7859 O.2       8 UNK        -0.5275 
     54 N          30.6942   30.6532    5.0810 N.am      9 UNK        -0.4246 
     55 CA         31.8839   29.8162    4.8776 C.3       9 UNK         0.0261 
     56 CB         32.5653   29.4922    6.2248 C.3       9 UNK        -0.1959 
     57 C          32.8583   30.4057    3.8383 C.2       9 UNK         0.5033 
     58 O          34.0316   30.6360    4.1363 O.2       9 UNK        -0.5390 
     59 N          32.3643   30.5913    2.6092 N.am      10 UNK        -0.4215 
     60 CA         33.1259   31.0001    1.4247 C.3       10 UNK         0.0240 
     61 CB         32.1894   31.7728    0.4773 C.3       10 UNK        -0.1982 
     62 C          33.7872   29.7886    0.7324 C.2       10 UNK         0.4970 
     63 O          33.8184   29.7167   -0.4969 O.2       10 UNK        -0.4916 
     64 N          34.2849   28.8459    1.5378 N.am      11 UNK        -0.4279 
     65 CA         34.9348   27.5945    1.1298 C.3       11 UNK         0.1003 
     66 C          36.4206   27.7426    0.6892 C.2       11 UNK         0.5709 
     67 N          37.0488   28.9035    0.8360 N.am      11 UNK        -0.7358 
     68 O          37.0095   26.7884    0.1866 O.2       11 UNK        -0.4999 
     69 C69        34.7426   26.5010    2.2158 C.3       12 UNK        -0.0954 
     70 S70        35.2360   27.0451    3.8904 S.3       12 UNK        -0.2268 
     71 C71        35.1113   25.4962    4.8349 C.3       12 UNK         0.0203 
     72 H72        29.2548   21.1516   -2.2518 H         1 UNK         0.0888 
     73 H73        28.0867   19.8530   -2.4179 H         1 UNK         0.0888 
     74 H74        27.5334   21.4575   -1.9579 H         1 UNK         0.0888 
     75 H75        29.2149   20.9255    1.4475 H         1 UNK         0.3017 
     76 H76        30.1673   22.5562   -0.6899 H         1 UNK         0.0873 
     77 H77        30.7768   24.1579    1.1333 H         1 UNK         0.0745 
     78 H78        29.8683   23.1954    2.2746 H         1 UNK         0.0745 
     79 H79        30.9340   21.4367    3.7134 H         1 UNK         0.0705 
     80 H80        32.6538   21.1367    3.6913 H         1 UNK         0.0705 
     81 H81        34.2430   23.2028    3.6451 H         1 UNK         0.1334 
     82 H82        32.8595   26.5183    5.9767 H         1 UNK         0.1417 
     83 H83        30.1423   23.3902    4.8507 H         1 UNK         0.1562 
     84 H84        30.4146   26.9149    6.0545 H         1 UNK         0.0748 
     85 H85        30.3742   25.6673    7.2655 H         1 UNK         0.0748 
     86 H86        27.4307   25.4904    3.6177 H         1 UNK         0.0940 
     87 H87        29.0768   24.9856    3.4554 H         1 UNK         0.0940 
     88 H88        29.8327   27.3722    3.8865 H         1 UNK         0.0703 
     89 H89        28.5409   26.4635    1.4727 H         1 UNK         0.3081 
     90 H90        29.7806   29.0739   -0.5860 H         1 UNK         0.0719 
     91 H91        31.7437   27.5627   -0.3603 H         1 UNK         0.0809 
     92 H92        30.8143   27.1649   -1.7955 H         1 UNK         0.0809 
     93 H93        30.6929   26.1541   -0.3571 H         1 UNK         0.0809 
     94 H94        28.3292   26.6247   -1.0812 H         1 UNK         0.2990 
     95 H95        25.0791   28.0159   -0.5639 H         1 UNK         0.0690 
     96 H96        24.7377   27.4789   -2.9513 H         1 UNK         0.0788 
     97 H97        26.4802   27.4119   -3.2211 H         1 UNK         0.0788 
     98 H98        25.7062   28.9351   -2.8051 H         1 UNK         0.0788 
     99 H99        25.7221   25.5539   -1.6969 H         1 UNK         0.2993 
    100 H100       25.2848   23.7080    1.1299 H         1 UNK         0.0949 
    101 H101       25.9062   23.5530   -1.8752 H         1 UNK         0.0767 
    102 H102       25.1325   22.3181   -0.8942 H         1 UNK         0.0767 
    103 H103       24.3070   23.8347   -1.1832 H         1 UNK         0.0767 
    104 H104       27.2020   22.5582    1.1828 H         1 UNK         0.3013 
    105 H105       26.5447   27.5948    2.5047 H         1 UNK         0.3121 
    106 H106       25.3079   29.1341    4.4835 H         1 UNK         0.0774 
    107 H107       24.7257   29.1047    1.4754 H         1 UNK         0.0815 
    108 H108       23.6135   29.6079    2.7377 H         1 UNK         0.0815 
    109 H109       24.1169   27.9271    2.6391 H         1 UNK         0.0815 
    110 H110       27.2519   30.2595    1.7045 H         1 UNK         0.2987 
    111 H111       26.8509   33.0794    2.1782 H         1 UNK         0.0949 
    112 H112       28.9427   31.5823    0.5188 H         1 UNK         0.0806 
    113 H113       27.3782   32.1466   -0.0644 H         1 UNK         0.0806 
    114 H114       28.6010   33.3063    0.4205 H         1 UNK         0.0806 
    115 H115       27.5421   31.9173    4.6011 H         1 UNK         0.3010 
    116 H116       28.7792   32.0886    6.4363 H         1 UNK         0.0829 
    117 H117       29.8655   34.6531    5.1546 H         1 UNK         0.0813 
    118 H118       28.3476   34.5182    6.0418 H         1 UNK         0.0813 
    119 H119       29.8753   34.2670    6.8691 H         1 UNK         0.0813 
    120 H120       29.8034   30.2087    4.8727 H         1 UNK         0.3038 
    121 H121       31.5321   28.8730    4.4595 H         1 UNK         0.0769 
    122 H122       33.4199   28.8304    6.0800 H         1 UNK         0.0811 
    123 H123       32.9380   30.3900    6.7186 H         1 UNK         0.0811 
    124 H124       31.8779   28.9941    6.9082 H         1 UNK         0.0811 
    125 H125       31.4187   30.2537    2.4226 H         1 UNK         0.3204 
    126 H126       33.9272   31.6756    1.7304 H         1 UNK         0.0748 
    127 H127       31.7338   32.6259    0.9802 H         1 UNK         0.0771 
    128 H128       32.7325   32.1603   -0.3856 H         1 UNK         0.0771 
    129 H129       31.3860   31.1377    0.1024 H         1 UNK         0.0771 
    130 H130       34.2695   29.0138    2.5350 H         1 UNK         0.2980 
    131 H131       34.4142   27.2410    0.2379 H         1 UNK         0.0545 
    132 H132       36.5772   29.6907    1.2505 H         1 UNK         0.3459 
    133 H133       38.0085   28.9864    0.5399 H         1 UNK         0.3459 
    134 H134       33.6884   26.2215    2.2557 H         1 UNK         0.0616 
    135 H135       35.2811   25.5872    1.9579 H         1 UNK         0.0616 
    136 H136       35.8305   24.7795    4.4355 H         1 UNK         0.0634 
    137 H137       35.4100   25.6885    5.8663 H         1 UNK         0.0634 
@<TRIPOS>BOND
     1    1    2 1    
     2    1   72 1    
     3    1   73 1    
     4    1   74 1    
     5    2    3 2    
     6    2    4 am   BACKBONE|DICT|INTERRES
     7    4    5 1    
     8    4   75 1    
     9    5    6 1    
    10    5   35 1    
    11    5   76 1    
    12    6    7 1    
    13    6   77 1    
    14    6   78 1    
    15    7    8 1    
    16    8    9 1    
    17    8   79 1    
    18    8   80 1    
    19    9   10 ar   
    20    9   14 ar   
    21   10   11 ar   
    22   10   81 1    
    23   11   12 ar   
    24   11   71 1    
    25   12   13 ar   
    26   12   82 1    
    27   13   14 ar   
    28   13   15 1    
    29   14   83 1    
    30   15   16 1    
    31   15   84 1    
    32   15   85 1    
    33   16   17 1    
    34   17   18 1    
    35   17   86 1    
    36   17   87 1    
    37   18   19 1    
    38   18   37 1    
    39   18   88 1    
    40   19   20 am   BACKBONE|DICT|INTERRES
    41   19   89 1    
    42   20   21 2    
    43   20   22 1    
    44   22   23 1    
    45   22   24 1    
    46   22   90 1    
    47   23   91 1    
    48   23   92 1    
    49   23   93 1    
    50   24   25 am   BACKBONE|DICT|INTERRES
    51   24   94 1    
    52   25   26 2    
    53   25   27 1    
    54   27   28 1    
    55   27   29 1    
    56   27   95 1    
    57   28   96 1    
    58   28   97 1    
    59   28   98 1    
    60   29   30 am   BACKBONE|DICT|INTERRES
    61   29   99 1    
    62   30   31 2    
    63   30   32 1    
    64   32   33 1    
    65   32   34 1    
    66   32  100 1    
    67   33  101 1    
    68   33  102 1    
    69   33  103 1    
    70   34   35 am   BACKBONE|DICT|INTERRES
    71   34  104 1    
    72   35   36 2    
    73   37   38 2    
    74   37   39 am   BACKBONE|DICT|INTERRES
    75   39   40 1    
    76   39  105 1    
    77   40   41 1    
    78   40   42 1    
    79   40  106 1    
    80   41  107 1    
    81   41  108 1    
    82   41  109 1    
    83   42   43 2    
    84   42   44 am   BACKBONE|DICT|INTERRES
    85   44   45 1    
    86   44  110 1    
    87   45   46 1    
    88   45   47 1    
    89   45  111 1    
    90   46  112 1    
    91   46  113 1    
    92   46  114 1    
    93   47   48 2    
    94   47   49 am   BACKBONE|DICT|INTERRES
    95   49   50 1    
    96   49  115 1    
    97   50   51 1    
    98   50   52 1    
    99   50  116 1    
   100   51  117 1    
   101   51  118 1    
   102   51  119 1    
   103   52   53 2    
   104   52   54 am   BACKBONE|DICT|INTERRES
   105   54   55 1    
   106   54  120 1    
   107   55   56 1    
   108   55   57 1    
   109   55  121 1    
   110   56  122 1    
   111   56  123 1    
   112   56  124 1    
   113   57   58 2    
   114   57   59 am   BACKBONE|DICT|INTERRES
   115   59   60 1    
   116   59  125 1    
   117   60   61 1    
   118   60   62 1    
   119   60  126 1    
   120   61  127 1    
   121   61  128 1    
   122   61  129 1    
   123   62   63 2    
   124   62   64 am   BACKBONE|DICT|INTERRES
   125   64   65 1    
   126   64  130 1    
   127   65   66 1    
   128   65   69 1    
   129   65  131 1    
   130   66   67 am   BACKBONE|DICT|INTERRES
   131   66   68 2    
   132   67  132 1    
   133   67  133 1    
   134   69   70 1    
   135   69  134 1    
   136   69  135 1    
   137   70   71 1    
   138   71  136 1    
   139   71  137 1    
@<TRIPOS>SUBSTRUCTURE
     1 UNK         1 GROUP             0       ****    0 ROOT    
