@<TRIPOS>MOLECULE
3R136
137   139    1
SMALL
USER_CHARGES


@<TRIPOS>ATOM
      1 CA         29.1715   21.0916   -1.2473 C.3       0 UNK        -0.1979 
      2 C          29.7061   22.1085   -2.2536 C.2       0 UNK         0.4864 
      3 O          30.2972   21.6974   -3.2507 O.2       0 UNK        -0.5359 
      4 N          29.5404   23.4281   -2.0668 N.am      1 UNK        -0.4318 
      5 CA         28.8636   24.1516   -0.9768 C.3       1 UNK         0.0824 
      6 C6         29.4626   23.9103    0.4365 C.3       12 UNK        -0.0944 
      7 S7         31.2384   24.3015    0.5540 S.3       12 UNK        -0.2672 
      8 C8         31.7669   23.1555    1.8672 C.3       12 UNK         0.0333 
      9 C9         31.4960   23.7156    3.2579 C.ar      12 UNK        -0.0807 
     10 C10        32.5231   24.3481    3.9664 C.ar      12 UNK        -0.0894 
     11 C11        32.3042   24.8342    5.2593 C.ar      12 UNK        -0.0804 
     12 C12        31.0362   24.7054    5.8324 C.ar      12 UNK        -0.0824 
     13 C13        29.9932   24.0932    5.1291 C.ar      12 UNK        -0.0762 
     14 C14        30.2350   23.5806    3.8498 C.ar      12 UNK        -0.0782 
     15 C15        28.6093   23.9883    5.7630 C.3       12 UNK         0.0230 
     16 S16        27.3433   24.9966    4.9130 S.3       12 UNK        -0.2608 
     17 C17        28.1859   26.6013    4.6951 C.3       12 UNK        -0.0989 
     18 CA         28.6012   26.7824    3.2144 C.3       5 UNK         0.0716 
     19 N          27.4655   27.1834    2.3726 N.am      5 UNK        -0.4135 
     20 C          27.4992   27.4238    1.0536 C.2       4 UNK         0.5031 
     21 O          28.4956   27.2668    0.3443 O.2       4 UNK        -0.5229 
     22 CA         26.1843   27.8910    0.4200 C.3       4 UNK         0.0329 
     23 CB         26.3893   28.5197   -0.9743 C.3       4 UNK        -0.2001 
     24 N          25.2659   26.7590    0.3232 N.am      4 UNK        -0.4303 
     25 C          23.9335   26.8644    0.2220 C.2       3 UNK         0.5044 
     26 O          23.3322   27.9374    0.3019 O.2       3 UNK        -0.5152 
     27 CA         23.1364   25.5610   -0.0099 C.3       3 UNK         0.0319 
     28 CB         21.7718   25.8074   -0.6889 C.3       3 UNK        -0.2001 
     29 N          23.8947   24.5279   -0.7278 N.am      3 UNK        -0.4354 
     30 C          24.4322   24.6097   -1.9551 C.2       2 UNK         0.4964 
     31 O          24.3014   25.5712   -2.7144 O.2       2 UNK        -0.5047 
     32 CA         25.3182   23.4224   -2.3773 C.3       2 UNK         0.0288 
     33 CB         25.0962   23.0456   -3.8529 C.3       2 UNK        -0.2113 
     34 N          26.7462   23.6838   -2.1616 N.am      2 UNK        -0.4145 
     35 C          27.3260   23.9875   -0.9893 C.2       1 UNK         0.5006 
     36 O          26.6962   24.1202    0.0624 O.2       1 UNK        -0.5103 
     37 C          29.7831   27.7541    3.0638 C.2       5 UNK         0.5055 
     38 O          29.6993   28.8816    3.5528 O.2       5 UNK        -0.5220 
     39 N          30.8177   27.3046    2.3344 N.am      6 UNK        -0.4450 
     40 CA         32.0108   28.0454    1.9128 C.3       6 UNK         0.0367 
     41 CB         33.0179   28.1395    3.0687 C.3       6 UNK        -0.1929 
     42 C          31.6763   29.4134    1.2907 C.2       6 UNK         0.5070 
     43 O          32.2402   30.4327    1.6988 O.2       6 UNK        -0.5237 
     44 N          30.7076   29.4043    0.3617 N.am      7 UNK        -0.4739 
     45 CA         30.1016   30.5347   -0.3553 C.3       7 UNK         0.0276 
     46 CB         31.1415   31.2972   -1.2001 C.3       7 UNK        -0.1927 
     47 C          29.3029   31.4882    0.5513 C.2       7 UNK         0.5013 
     48 O          28.1211   31.7202    0.2965 O.2       7 UNK        -0.5193 
     49 N          29.9595   32.0117    1.5885 N.am      8 UNK        -0.4253 
     50 CA         29.4153   32.9167    2.5946 C.3       8 UNK         0.0242 
     51 CB         29.4011   34.3620    2.0557 C.3       8 UNK        -0.2000 
     52 C          30.2101   32.7612    3.9004 C.2       8 UNK         0.4948 
     53 O          30.6710   33.7574    4.4603 O.2       8 UNK        -0.5275 
     54 N          30.3717   31.5075    4.3507 N.am      9 UNK        -0.4246 
     55 CA         31.0658   31.0830    5.5714 C.3       9 UNK         0.0261 
     56 CB         30.3278   31.5873    6.8304 C.3       9 UNK        -0.1959 
     57 C          32.5710   31.4093    5.5866 C.2       9 UNK         0.5033 
     58 O          33.1356   31.6170    6.6625 O.2       9 UNK        -0.5390 
     59 N          33.2262   31.3922    4.4158 N.am      10 UNK        -0.4215 
     60 CA         34.6733   31.5921    4.2624 C.3       10 UNK         0.0240 
     61 CB         34.9549   32.1359    2.8491 C.3       10 UNK        -0.1982 
     62 C          35.4790   30.3115    4.5777 C.2       10 UNK         0.4970 
     63 O          36.3956   29.9603    3.8325 O.2       10 UNK        -0.4916 
     64 N          35.0981   29.6161    5.6545 N.am      11 UNK        -0.4279 
     65 CA         35.6952   28.3615    6.1253 C.3       11 UNK         0.1003 
     66 C          37.1218   28.5684    6.7014 C.2       11 UNK         0.5709 
     67 N          38.0031   27.5909    6.5398 N.am      11 UNK        -0.7358 
     68 O          37.4244   29.5842    7.3260 O.2       11 UNK        -0.4999 
     69 C69        34.7761   27.6578    7.1585 C.3       12 UNK        -0.0954 
     70 S70        33.1523   27.2034    6.4588 S.3       12 UNK        -0.2268 
     71 C71        33.4481   25.4537    6.0530 C.3       12 UNK         0.0203 
     72 H72        29.8963   20.9399   -0.4473 H         1 UNK         0.0888 
     73 H73        28.2201   21.3852   -0.8087 H         1 UNK         0.0888 
     74 H74        29.0142   20.1303   -1.7365 H         1 UNK         0.0888 
     75 H75        29.9420   24.0378   -2.7657 H         1 UNK         0.3017 
     76 H76        29.0235   25.2057   -1.2066 H         1 UNK         0.0873 
     77 H77        28.9517   24.5381    1.1608 H         1 UNK         0.0745 
     78 H78        29.2844   22.8885    0.7679 H         1 UNK         0.0745 
     79 H79        32.8345   22.9662    1.7459 H         1 UNK         0.0705 
     80 H80        31.2799   22.1869    1.7461 H         1 UNK         0.0705 
     81 H81        33.5019   24.4436    3.5163 H         1 UNK         0.1334 
     82 H82        30.8650   25.0873    6.8299 H         1 UNK         0.1417 
     83 H83        29.4343   23.0922    3.3114 H         1 UNK         0.1562 
     84 H84        28.6438   24.2894    6.8112 H         1 UNK         0.0748 
     85 H85        28.2907   22.9451    5.7587 H         1 UNK         0.0748 
     86 H86        29.0450   26.6506    5.3664 H         1 UNK         0.0940 
     87 H87        27.5232   27.4067    5.0166 H         1 UNK         0.0940 
     88 H88        28.9456   25.8180    2.8520 H         1 UNK         0.0703 
     89 H89        26.5916   27.3192    2.8586 H         1 UNK         0.3081 
     90 H90        25.7580   28.6506    1.0789 H         1 UNK         0.0719 
     91 H91        26.7850   27.7965   -1.6885 H         1 UNK         0.0809 
     92 H92        25.4549   28.9089   -1.3785 H         1 UNK         0.0809 
     93 H93        27.0887   29.3540   -0.9259 H         1 UNK         0.0809 
     94 H94        25.6932   25.8370    0.2807 H         1 UNK         0.2990 
     95 H95        22.9393   25.1546    0.9831 H         1 UNK         0.0690 
     96 H96        21.2236   24.8757   -0.8283 H         1 UNK         0.0788 
     97 H97        21.8853   26.2796   -1.6653 H         1 UNK         0.0788 
     98 H98        21.1443   26.4620   -0.0829 H         1 UNK         0.0788 
     99 H99        24.1264   23.7125   -0.1762 H         1 UNK         0.2993 
    100 H100       25.0447   22.5566   -1.7706 H         1 UNK         0.0949 
    101 H101       25.4096   23.8438   -4.5270 H         1 UNK         0.0767 
    102 H102       25.6487   22.1445   -4.1203 H         1 UNK         0.0767 
    103 H103       24.0416   22.8481   -4.0501 H         1 UNK         0.0767 
    104 H104       27.3388   23.6178   -2.9764 H         1 UNK         0.3013 
    105 H105       30.7465   26.3712    1.9492 H         1 UNK         0.3121 
    106 H106       32.4761   27.4584    1.1196 H         1 UNK         0.0774 
    107 H107       33.9279   28.6490    2.7521 H         1 UNK         0.0815 
    108 H108       32.6040   28.6842    3.9159 H         1 UNK         0.0815 
    109 H109       33.3110   27.1502    3.4167 H         1 UNK         0.0815 
    110 H110       30.2440   28.5155    0.1990 H         1 UNK         0.2987 
    111 H111       29.3862   30.0908   -1.0490 H         1 UNK         0.0949 
    112 H112       30.6632   32.0829   -1.7865 H         1 UNK         0.0806 
    113 H113       31.9053   31.7740   -0.5852 H         1 UNK         0.0806 
    114 H114       31.6451   30.6317   -1.9010 H         1 UNK         0.0806 
    115 H115       30.9178   31.6948    1.7280 H         1 UNK         0.3010 
    116 H116       28.3882   32.6205    2.8177 H         1 UNK         0.0829 
    117 H117       28.7893   34.4465    1.1575 H         1 UNK         0.0813 
    118 H118       28.9868   35.0510    2.7927 H         1 UNK         0.0813 
    119 H119       30.4059   34.7076    1.8108 H         1 UNK         0.0813 
    120 H120       29.9776   30.7346    3.8161 H         1 UNK         0.3038 
    121 H121       31.0086   29.9938    5.5836 H         1 UNK         0.0769 
    122 H122       30.7502   31.1473    7.7346 H         1 UNK         0.0811 
    123 H123       29.2720   31.3179    6.8052 H         1 UNK         0.0811 
    124 H124       30.3970   32.6704    6.9340 H         1 UNK         0.0811 
    125 H125       32.7189   31.1513    3.5696 H         1 UNK         0.3204 
    126 H126       34.9983   32.3527    4.9755 H         1 UNK         0.0748 
    127 H127       36.0075   32.3967    2.7322 H         1 UNK         0.0771 
    128 H128       34.7136   31.4020    2.0793 H         1 UNK         0.0771 
    129 H129       34.3750   33.0365    2.6469 H         1 UNK         0.0771 
    130 H130       34.3741   30.0146    6.2398 H         1 UNK         0.2980 
    131 H131       35.7852   27.7062    5.2564 H         1 UNK         0.0545 
    132 H132       38.9301   27.7005    6.9203 H         1 UNK         0.3459 
    133 H133       37.7644   26.7489    6.0393 H         1 UNK         0.3459 
    134 H134       34.6046   28.3076    8.0186 H         1 UNK         0.0616 
    135 H135       35.2529   26.7581    7.5521 H         1 UNK         0.0616 
    136 H136       34.3834   25.3754    5.4966 H         1 UNK         0.0634 
    137 H137       33.5884   24.8909    6.9768 H         1 UNK         0.0634 
@<TRIPOS>BOND
     1    1    2 1    
     2    1   72 1    
     3    1   73 1    
     4    1   74 1    
     5    2    3 2    
     6    2    4 am   BACKBONE|DICT|INTERRES
     7    4    5 1    
     8    4   75 1    
     9    5    6 1    
    10    5   35 1    
    11    5   76 1    
    12    6    7 1    
    13    6   77 1    
    14    6   78 1    
    15    7    8 1    
    16    8    9 1    
    17    8   79 1    
    18    8   80 1    
    19    9   10 ar   
    20    9   14 ar   
    21   10   11 ar   
    22   10   81 1    
    23   11   12 ar   
    24   11   71 1    
    25   12   13 ar   
    26   12   82 1    
    27   13   14 ar   
    28   13   15 1    
    29   14   83 1    
    30   15   16 1    
    31   15   84 1    
    32   15   85 1    
    33   16   17 1    
    34   17   18 1    
    35   17   86 1    
    36   17   87 1    
    37   18   19 1    
    38   18   37 1    
    39   18   88 1    
    40   19   20 am   BACKBONE|DICT|INTERRES
    41   19   89 1    
    42   20   21 2    
    43   20   22 1    
    44   22   23 1    
    45   22   24 1    
    46   22   90 1    
    47   23   91 1    
    48   23   92 1    
    49   23   93 1    
    50   24   25 am   BACKBONE|DICT|INTERRES
    51   24   94 1    
    52   25   26 2    
    53   25   27 1    
    54   27   28 1    
    55   27   29 1    
    56   27   95 1    
    57   28   96 1    
    58   28   97 1    
    59   28   98 1    
    60   29   30 am   BACKBONE|DICT|INTERRES
    61   29   99 1    
    62   30   31 2    
    63   30   32 1    
    64   32   33 1    
    65   32   34 1    
    66   32  100 1    
    67   33  101 1    
    68   33  102 1    
    69   33  103 1    
    70   34   35 am   BACKBONE|DICT|INTERRES
    71   34  104 1    
    72   35   36 2    
    73   37   38 2    
    74   37   39 am   BACKBONE|DICT|INTERRES
    75   39   40 1    
    76   39  105 1    
    77   40   41 1    
    78   40   42 1    
    79   40  106 1    
    80   41  107 1    
    81   41  108 1    
    82   41  109 1    
    83   42   43 2    
    84   42   44 am   BACKBONE|DICT|INTERRES
    85   44   45 1    
    86   44  110 1    
    87   45   46 1    
    88   45   47 1    
    89   45  111 1    
    90   46  112 1    
    91   46  113 1    
    92   46  114 1    
    93   47   48 2    
    94   47   49 am   BACKBONE|DICT|INTERRES
    95   49   50 1    
    96   49  115 1    
    97   50   51 1    
    98   50   52 1    
    99   50  116 1    
   100   51  117 1    
   101   51  118 1    
   102   51  119 1    
   103   52   53 2    
   104   52   54 am   BACKBONE|DICT|INTERRES
   105   54   55 1    
   106   54  120 1    
   107   55   56 1    
   108   55   57 1    
   109   55  121 1    
   110   56  122 1    
   111   56  123 1    
   112   56  124 1    
   113   57   58 2    
   114   57   59 am   BACKBONE|DICT|INTERRES
   115   59   60 1    
   116   59  125 1    
   117   60   61 1    
   118   60   62 1    
   119   60  126 1    
   120   61  127 1    
   121   61  128 1    
   122   61  129 1    
   123   62   63 2    
   124   62   64 am   BACKBONE|DICT|INTERRES
   125   64   65 1    
   126   64  130 1    
   127   65   66 1    
   128   65   69 1    
   129   65  131 1    
   130   66   67 am   BACKBONE|DICT|INTERRES
   131   66   68 2    
   132   67  132 1    
   133   67  133 1    
   134   69   70 1    
   135   69  134 1    
   136   69  135 1    
   137   70   71 1    
   138   71  136 1    
   139   71  137 1    
@<TRIPOS>SUBSTRUCTURE
     1 UNK         1 GROUP             0       ****    0 ROOT    
