@<TRIPOS>MOLECULE
3R136
137   139    1
SMALL
USER_CHARGES


@<TRIPOS>ATOM
      1 CA         30.0161   21.9148    3.7342 C.3       0 UNK        -0.1979 
      2 C          29.5896   21.6909    2.2909 C.2       0 UNK         0.4864 
      3 O          29.2892   20.5587    1.9085 O.2       0 UNK        -0.5359 
      4 N          29.5802   22.7603    1.4864 N.am      1 UNK        -0.4318 
      5 CA         29.1902   22.7642    0.0731 C.3       1 UNK         0.0824 
      6 C6         29.5093   24.1097   -0.6294 C.3       12 UNK        -0.0944 
      7 S7         31.1946   24.7375   -0.3167 S.3       12 UNK        -0.2672 
      8 C8         30.8458   26.2759    0.5973 C.3       12 UNK         0.0333 
      9 C9         30.5595   26.0248    2.0724 C.ar      12 UNK        -0.0807 
     10 C10        31.5898   26.1439    3.0082 C.ar      12 UNK        -0.0894 
     11 C11        31.3432   25.9611    4.3758 C.ar      12 UNK        -0.0804 
     12 C12        30.0461   25.6398    4.7883 C.ar      12 UNK        -0.0824 
     13 C13        29.0011   25.5124    3.8678 C.ar      12 UNK        -0.0762 
     14 C14        29.2699   25.7056    2.5079 C.ar      12 UNK        -0.0782 
     15 C15        27.6112   25.1267    4.3788 C.3       12 UNK         0.0230 
     16 S16        26.2055   25.7554    3.3955 S.3       12 UNK        -0.2608 
     17 C17        26.3561   27.5638    3.6010 C.3       12 UNK        -0.0989 
     18 CA         26.8070   28.2590    2.2893 C.3       5 UNK         0.0716 
     19 N          25.8778   28.0167    1.1779 N.am      5 UNK        -0.4135 
     20 C          26.2077   27.4269    0.0235 C.2       4 UNK         0.5031 
     21 O          27.3518   27.0754   -0.2748 O.2       4 UNK        -0.5229 
     22 CA         25.0750   27.2295   -0.9882 C.3       4 UNK         0.0329 
     23 CB         24.8195   28.5358   -1.7682 C.3       4 UNK        -0.2001 
     24 N          25.4607   26.1521   -1.8962 N.am      4 UNK        -0.4303 
     25 C          24.6643   25.5341   -2.7747 C.2       3 UNK         0.5044 
     26 O          23.4688   25.7917   -2.9226 O.2       3 UNK        -0.5152 
     27 CA         25.3178   24.4441   -3.6406 C.3       3 UNK         0.0319 
     28 CB         26.3923   25.0374   -4.5690 C.3       3 UNK        -0.2001 
     29 N          25.8965   23.3540   -2.8511 N.am      3 UNK        -0.4354 
     30 C          25.1869   22.4506   -2.1572 C.2       2 UNK         0.4964 
     31 O          23.9584   22.4603   -2.0747 O.2       2 UNK        -0.5047 
     32 CA         25.9683   21.3170   -1.4664 C.3       2 UNK         0.0288 
     33 CB         25.9749   20.0578   -2.3495 C.3       2 UNK        -0.2113 
     34 N          27.3503   21.6754   -1.1335 N.am      2 UNK        -0.4145 
     35 C          27.6899   22.4476   -0.0930 C.2       1 UNK         0.5006 
     36 O          26.8722   22.9400    0.6885 O.2       1 UNK        -0.5103 
     37 C          27.0909   29.7621    2.4754 C.2       5 UNK         0.5055 
     38 O          27.5133   30.1725    3.5559 O.2       5 UNK        -0.5220 
     39 N          26.9163   30.5647    1.4146 N.am      6 UNK        -0.4450 
     40 CA         27.2964   31.9830    1.3824 C.3       6 UNK         0.0367 
     41 CB         26.7355   32.6313    0.1066 C.3       6 UNK        -0.1929 
     42 C          28.8207   32.1977    1.4725 C.2       6 UNK         0.5070 
     43 O          29.2632   33.2259    1.9837 O.2       6 UNK        -0.5237 
     44 N          29.5925   31.2119    0.9948 N.am      7 UNK        -0.4739 
     45 CA         31.0561   31.1895    1.0240 C.3       7 UNK         0.0276 
     46 CB         31.5544   30.3312   -0.1515 C.3       7 UNK        -0.1927 
     47 C          31.6446   30.6777    2.3529 C.2       7 UNK         0.5013 
     48 O          32.8690   30.6554    2.4812 O.2       7 UNK        -0.5193 
     49 N          30.7994   30.2773    3.3182 N.am      8 UNK        -0.4253 
     50 CA         31.1997   29.6450    4.5844 C.3       8 UNK         0.0242 
     51 CB         29.9529   29.2208    5.3735 C.3       8 UNK        -0.2000 
     52 C          32.1455   30.4711    5.4734 C.2       8 UNK         0.4948 
     53 O          32.8509   29.8890    6.2966 O.2       8 UNK        -0.5275 
     54 N          32.1991   31.7939    5.2632 N.am      9 UNK        -0.4246 
     55 CA         33.1797   32.6992    5.8695 C.3       9 UNK         0.0261 
     56 CB         32.8617   34.1432    5.4500 C.3       9 UNK        -0.1959 
     57 C          34.6431   32.3488    5.5286 C.2       9 UNK         0.5033 
     58 O          35.5307   32.6544    6.3263 O.2       9 UNK        -0.5390 
     59 N          34.8753   31.6922    4.3805 N.am      10 UNK        -0.4215 
     60 CA         36.1893   31.1985    3.9616 C.3       10 UNK         0.0240 
     61 CB         36.1570   30.8842    2.4567 C.3       10 UNK        -0.1982 
     62 C          36.6689   29.9680    4.7552 C.2       10 UNK         0.4970 
     63 O          37.8652   29.6764    4.7197 O.2       10 UNK        -0.4916 
     64 N          35.7569   29.2668    5.4446 N.am      11 UNK        -0.4279 
     65 CA         36.0672   28.0846    6.2660 C.3       11 UNK         0.1003 
     66 C          36.7231   28.4177    7.6386 C.2       11 UNK         0.5709 
     67 N          36.7904   29.6753    8.0625 N.am      11 UNK        -0.7358 
     68 O          37.1914   27.5154    8.3291 O.2       11 UNK        -0.4999 
     69 C69        34.8356   27.1573    6.4495 C.3       12 UNK        -0.0954 
     70 S70        34.0622   26.6720    4.8701 S.3       12 UNK        -0.2268 
     71 C71        32.4198   26.1244    5.4536 C.3       12 UNK         0.0203 
     72 H72        30.7109   21.1362    4.0479 H         1 UNK         0.0888 
     73 H73        30.5120   22.8765    3.8638 H         1 UNK         0.0888 
     74 H74        29.1481   21.8841    4.3920 H         1 UNK         0.0888 
     75 H75        29.8450   23.6623    1.8582 H         1 UNK         0.3017 
     76 H76        29.7686   21.9777   -0.4166 H         1 UNK         0.0873 
     77 H77        28.7861   24.8751   -0.3476 H         1 UNK         0.0745 
     78 H78        29.4015   23.9965   -1.7096 H         1 UNK         0.0745 
     79 H79        31.7119   26.9319    0.4990 H         1 UNK         0.0705 
     80 H80        30.0164   26.8115    0.1337 H         1 UNK         0.0705 
     81 H81        32.5792   26.3957    2.6557 H         1 UNK         0.1334 
     82 H82        29.8483   25.4916    5.8416 H         1 UNK         0.1417 
     83 H83        28.4721   25.6076    1.7845 H         1 UNK         0.1562 
     84 H84        27.4820   25.4622    5.4091 H         1 UNK         0.0748 
     85 H85        27.5487   24.0382    4.4010 H         1 UNK         0.0748 
     86 H86        27.0560   27.7666    4.4135 H         1 UNK         0.0940 
     87 H87        25.3922   27.9560    3.9297 H         1 UNK         0.0940 
     88 H88        27.7858   27.8550    2.0356 H         1 UNK         0.0703 
     89 H89        24.9168   28.2862    1.3364 H         1 UNK         0.3081 
     90 H90        24.1716   26.9308   -0.4524 H         1 UNK         0.0719 
     91 H91        23.9948   28.4295   -2.4727 H         1 UNK         0.0809 
     92 H92        25.7006   28.8448   -2.3322 H         1 UNK         0.0809 
     93 H93        24.5570   29.3537   -1.0963 H         1 UNK         0.0809 
     94 H94        26.4308   25.8751   -1.8079 H         1 UNK         0.2990 
     95 H95        24.5356   24.0177   -4.2728 H         1 UNK         0.0690 
     96 H96        26.7630   24.2907   -5.2715 H         1 UNK         0.0788 
     97 H97        27.2467   25.4264   -4.0137 H         1 UNK         0.0788 
     98 H98        25.9858   25.8598   -5.1595 H         1 UNK         0.0788 
     99 H99        26.9004   23.2593   -2.8715 H         1 UNK         0.2993 
    100 H100       25.4401   21.0774   -0.5403 H         1 UNK         0.0949 
    101 H101       26.4563   19.2207   -1.8433 H         1 UNK         0.0767 
    102 H102       24.9578   19.7454   -2.5914 H         1 UNK         0.0767 
    103 H103       26.4965   20.2266   -3.2926 H         1 UNK         0.0767 
    104 H104       28.0747   21.3007   -1.7299 H         1 UNK         0.3013 
    105 H105       26.5689   30.1626    0.5565 H         1 UNK         0.3121 
    106 H106       26.8436   32.4756    2.2458 H         1 UNK         0.0774 
    107 H107       26.9822   33.6934    0.0694 H         1 UNK         0.0815 
    108 H108       27.1422   32.1714   -0.7950 H         1 UNK         0.0815 
    109 H109       25.6490   32.5521    0.0648 H         1 UNK         0.0815 
    110 H110       29.1382   30.4075    0.5876 H         1 UNK         0.2987 
    111 H111       31.4297   32.2063    0.8833 H         1 UNK         0.0949 
    112 H112       31.2100   29.3000   -0.0728 H         1 UNK         0.0806 
    113 H113       31.2093   30.7283   -1.1063 H         1 UNK         0.0806 
    114 H114       32.6446   30.3089   -0.1895 H         1 UNK         0.0806 
    115 H115       29.8046   30.3630    3.1550 H         1 UNK         0.3010 
    116 H116       31.7522   28.7448    4.3152 H         1 UNK         0.0829 
    117 H117       29.3471   28.5191    4.8013 H         1 UNK         0.0813 
    118 H118       30.2271   28.7220    6.3040 H         1 UNK         0.0813 
    119 H119       29.3280   30.0763    5.6316 H         1 UNK         0.0813 
    120 H120       31.5813   32.1880    4.5684 H         1 UNK         0.3038 
    121 H121       33.0714   32.6230    6.9534 H         1 UNK         0.0769 
    122 H122       33.5610   34.8450    5.9069 H         1 UNK         0.0811 
    123 H123       31.8599   34.4372    5.7638 H         1 UNK         0.0811 
    124 H124       32.9284   34.2739    4.3690 H         1 UNK         0.0811 
    125 H125       34.0917   31.4471    3.7790 H         1 UNK         0.3204 
    126 H126       36.9182   31.9953    4.1247 H         1 UNK         0.0748 
    127 H127       37.1463   30.5993    2.0960 H         1 UNK         0.0771 
    128 H128       35.4798   30.0591    2.2320 H         1 UNK         0.0771 
    129 H129       35.8367   31.7490    1.8752 H         1 UNK         0.0771 
    130 H130       34.7912   29.5715    5.4644 H         1 UNK         0.2980 
    131 H131       36.8148   27.5037    5.7224 H         1 UNK         0.0545 
    132 H132       36.4118   30.4259    7.5049 H         1 UNK         0.3459 
    133 H133       37.2229   29.8739    8.9507 H         1 UNK         0.3459 
    134 H134       34.0891   27.6495    7.0748 H         1 UNK         0.0616 
    135 H135       35.1190   26.2427    6.9736 H         1 UNK         0.0616 
    136 H136       32.5403   25.1781    5.9825 H         1 UNK         0.0634 
    137 H137       32.0568   26.8478    6.1850 H         1 UNK         0.0634 
@<TRIPOS>BOND
     1    1    2 1    
     2    1   72 1    
     3    1   73 1    
     4    1   74 1    
     5    2    3 2    
     6    2    4 am   BACKBONE|DICT|INTERRES
     7    4    5 1    
     8    4   75 1    
     9    5    6 1    
    10    5   35 1    
    11    5   76 1    
    12    6    7 1    
    13    6   77 1    
    14    6   78 1    
    15    7    8 1    
    16    8    9 1    
    17    8   79 1    
    18    8   80 1    
    19    9   10 ar   
    20    9   14 ar   
    21   10   11 ar   
    22   10   81 1    
    23   11   12 ar   
    24   11   71 1    
    25   12   13 ar   
    26   12   82 1    
    27   13   14 ar   
    28   13   15 1    
    29   14   83 1    
    30   15   16 1    
    31   15   84 1    
    32   15   85 1    
    33   16   17 1    
    34   17   18 1    
    35   17   86 1    
    36   17   87 1    
    37   18   19 1    
    38   18   37 1    
    39   18   88 1    
    40   19   20 am   BACKBONE|DICT|INTERRES
    41   19   89 1    
    42   20   21 2    
    43   20   22 1    
    44   22   23 1    
    45   22   24 1    
    46   22   90 1    
    47   23   91 1    
    48   23   92 1    
    49   23   93 1    
    50   24   25 am   BACKBONE|DICT|INTERRES
    51   24   94 1    
    52   25   26 2    
    53   25   27 1    
    54   27   28 1    
    55   27   29 1    
    56   27   95 1    
    57   28   96 1    
    58   28   97 1    
    59   28   98 1    
    60   29   30 am   BACKBONE|DICT|INTERRES
    61   29   99 1    
    62   30   31 2    
    63   30   32 1    
    64   32   33 1    
    65   32   34 1    
    66   32  100 1    
    67   33  101 1    
    68   33  102 1    
    69   33  103 1    
    70   34   35 am   BACKBONE|DICT|INTERRES
    71   34  104 1    
    72   35   36 2    
    73   37   38 2    
    74   37   39 am   BACKBONE|DICT|INTERRES
    75   39   40 1    
    76   39  105 1    
    77   40   41 1    
    78   40   42 1    
    79   40  106 1    
    80   41  107 1    
    81   41  108 1    
    82   41  109 1    
    83   42   43 2    
    84   42   44 am   BACKBONE|DICT|INTERRES
    85   44   45 1    
    86   44  110 1    
    87   45   46 1    
    88   45   47 1    
    89   45  111 1    
    90   46  112 1    
    91   46  113 1    
    92   46  114 1    
    93   47   48 2    
    94   47   49 am   BACKBONE|DICT|INTERRES
    95   49   50 1    
    96   49  115 1    
    97   50   51 1    
    98   50   52 1    
    99   50  116 1    
   100   51  117 1    
   101   51  118 1    
   102   51  119 1    
   103   52   53 2    
   104   52   54 am   BACKBONE|DICT|INTERRES
   105   54   55 1    
   106   54  120 1    
   107   55   56 1    
   108   55   57 1    
   109   55  121 1    
   110   56  122 1    
   111   56  123 1    
   112   56  124 1    
   113   57   58 2    
   114   57   59 am   BACKBONE|DICT|INTERRES
   115   59   60 1    
   116   59  125 1    
   117   60   61 1    
   118   60   62 1    
   119   60  126 1    
   120   61  127 1    
   121   61  128 1    
   122   61  129 1    
   123   62   63 2    
   124   62   64 am   BACKBONE|DICT|INTERRES
   125   64   65 1    
   126   64  130 1    
   127   65   66 1    
   128   65   69 1    
   129   65  131 1    
   130   66   67 am   BACKBONE|DICT|INTERRES
   131   66   68 2    
   132   67  132 1    
   133   67  133 1    
   134   69   70 1    
   135   69  134 1    
   136   69  135 1    
   137   70   71 1    
   138   71  136 1    
   139   71  137 1    
@<TRIPOS>SUBSTRUCTURE
     1 UNK         1 GROUP             0       ****    0 ROOT    
