@<TRIPOS>MOLECULE
3R136
137   139    1
SMALL
USER_CHARGES


@<TRIPOS>ATOM
      1 CA         24.6667   21.8329    4.5978 C.3       0 UNK        -0.1979 
      2 C          25.7660   22.3616    3.6888 C.2       0 UNK         0.4864 
      3 O          25.5945   22.3713    2.4696 O.2       0 UNK        -0.5359 
      4 N          26.8881   22.8061    4.2754 N.am      1 UNK        -0.4318 
      5 CA         28.0627   23.3512    3.5803 C.3       1 UNK         0.0824 
      6 C6         29.2040   23.6682    4.5849 C.3       12 UNK        -0.0944 
      7 S7         30.8078   24.0198    3.7863 S.3       12 UNK        -0.2672 
      8 C8         30.8158   25.8431    3.8020 C.3       12 UNK         0.0333 
      9 C9         31.7699   26.3929    2.7551 C.ar      12 UNK        -0.0807 
     10 C10        32.9949   26.9447    3.1353 C.ar      12 UNK        -0.0894 
     11 C11        33.8815   27.4386    2.1744 C.ar      12 UNK        -0.0804 
     12 C12        33.5349   27.3715    0.8215 C.ar      12 UNK        -0.0824 
     13 C13        32.3075   26.8283    0.4279 C.ar      12 UNK        -0.0762 
     14 C14        31.4254   26.3478    1.4006 C.ar      12 UNK        -0.0782 
     15 C15        31.9545   26.7238   -1.0489 C.3       12 UNK         0.0230 
     16 S16        31.7067   28.3477   -1.8320 S.3       12 UNK        -0.2608 
     17 C17        30.1146   28.8956   -1.1304 C.3       12 UNK        -0.0989 
     18 CA         28.9262   28.6035   -2.0911 C.3       5 UNK         0.0716 
     19 N          28.3655   27.2660   -1.8427 N.am      5 UNK        -0.4135 
     20 C          28.4622   26.2281   -2.6863 C.2       4 UNK         0.5031 
     21 O          28.9775   26.2972   -3.8028 O.2       4 UNK        -0.5229 
     22 CA         27.9128   24.8671   -2.2159 C.3       4 UNK         0.0329 
     23 CB         29.0446   23.9841   -1.6653 C.3       4 UNK        -0.2001 
     24 N          26.8525   24.9719   -1.2116 N.am      4 UNK        -0.4303 
     25 C          25.5907   25.3348   -1.4880 C.2       3 UNK         0.5044 
     26 O          25.1930   25.5990   -2.6229 O.2       3 UNK        -0.5152 
     27 CA         24.6004   25.4438   -0.3112 C.3       3 UNK         0.0319 
     28 CB         23.7364   24.1761   -0.2192 C.3       3 UNK        -0.2001 
     29 N          25.2230   25.6920    0.9924 N.am      3 UNK        -0.4354 
     30 C          25.9901   26.7493    1.2921 C.2       2 UNK         0.4964 
     31 O          26.2797   27.6303    0.4860 O.2       2 UNK        -0.5047 
     32 CA         26.5933   26.8068    2.7028 C.3       2 UNK         0.0288 
     33 CB         25.6646   27.5779    3.6532 C.3       2 UNK        -0.2113 
     34 N          26.9175   25.5000    3.2810 N.am      2 UNK        -0.4145 
     35 C          27.7224   24.5844    2.7181 C.2       1 UNK         0.5006 
     36 O          28.1925   24.6863    1.5829 O.2       1 UNK        -0.5103 
     37 C          27.8543   29.7152   -2.0301 C.2       5 UNK         0.5055 
     38 O          28.1871   30.8700   -2.3009 O.2       5 UNK        -0.5220 
     39 N          26.6062   29.3722   -1.6740 N.am      6 UNK        -0.4450 
     40 CA         25.4744   30.2638   -1.3746 C.3       6 UNK         0.0367 
     41 CB         25.0754   31.1140   -2.5996 C.3       6 UNK        -0.1929 
     42 C          25.6817   31.1090   -0.0976 C.2       6 UNK         0.5070 
     43 O          24.9870   32.1083    0.0932 O.2       6 UNK        -0.5237 
     44 N          26.6134   30.6796    0.7604 N.am      7 UNK        -0.4739 
     45 CA         27.0323   31.2770    2.0240 C.3       7 UNK         0.0276 
     46 CB         27.6501   32.6724    1.8004 C.3       7 UNK        -0.1927 
     47 C          28.0729   30.3398    2.6496 C.2       7 UNK         0.5013 
     48 O          28.7493   29.6112    1.9189 O.2       7 UNK        -0.5193 
     49 N          28.1959   30.3828    3.9800 N.am      8 UNK        -0.4253 
     50 CA         29.2570   29.7015    4.7243 C.3       8 UNK         0.0242 
     51 CB         28.7364   29.3412    6.1256 C.3       8 UNK        -0.2000 
     52 C          30.4987   30.6030    4.8236 C.2       8 UNK         0.4948 
     53 O          30.3798   31.8276    4.7255 O.2       8 UNK        -0.5275 
     54 N          31.6607   29.9862    5.0543 N.am      9 UNK        -0.4246 
     55 CA         32.9526   30.6443    5.2257 C.3       9 UNK         0.0261 
     56 CB         33.5278   31.0439    3.8531 C.3       9 UNK        -0.1959 
     57 C          33.8854   29.7060    6.0028 C.2       9 UNK         0.5033 
     58 O          33.5813   28.5178    6.1443 O.2       9 UNK        -0.5390 
     59 N          35.0039   30.2478    6.4985 N.am      10 UNK        -0.4215 
     60 CA         35.9648   29.5691    7.3754 C.3       10 UNK         0.0240 
     61 CB         36.7260   30.6348    8.1883 C.3       10 UNK        -0.1982 
     62 C          36.9128   28.5967    6.6389 C.2       10 UNK         0.4970 
     63 O          38.1321   28.7008    6.7866 O.2       10 UNK        -0.4916 
     64 N          36.3443   27.6590    5.8744 N.am      11 UNK        -0.4279 
     65 CA         37.0585   26.5051    5.3057 C.3       11 UNK         0.1003 
     66 C          37.3076   25.4141    6.3834 C.2       11 UNK         0.5709 
     67 N          38.3759   24.6411    6.2456 N.am      11 UNK        -0.7358 
     68 O          36.5300   25.2388    7.3201 O.2       11 UNK        -0.4999 
     69 C69        36.3151   25.9167    4.0768 C.3       12 UNK        -0.0954 
     70 S70        36.5859   26.9010    2.5652 S.3       12 UNK        -0.2268 
     71 C71        35.1987   28.0734    2.5954 C.3       12 UNK         0.0203 
     72 H72        24.4493   20.7928    4.3562 H         1 UNK         0.0888 
     73 H73        24.9453   21.8853    5.6502 H         1 UNK         0.0888 
     74 H74        23.7545   22.4126    4.4591 H         1 UNK         0.0888 
     75 H75        26.9606   22.7585    5.2820 H         1 UNK         0.3017 
     76 H76        28.4131   22.5724    2.8993 H         1 UNK         0.0873 
     77 H77        28.9319   24.4913    5.2489 H         1 UNK         0.0745 
     78 H78        29.3641   22.8068    5.2355 H         1 UNK         0.0745 
     79 H79        31.0886   26.1894    4.8002 H         1 UNK         0.0705 
     80 H80        29.8187   26.2359    3.6053 H         1 UNK         0.0705 
     81 H81        33.2589   26.9849    4.1814 H         1 UNK         0.1334 
     82 H82        34.2191   27.7459    0.0721 H         1 UNK         0.1417 
     83 H83        30.4774   25.9177    1.1072 H         1 UNK         0.1562 
     84 H84        31.0637   26.1152   -1.1970 H         1 UNK         0.0748 
     85 H85        32.7627   26.2069   -1.5680 H         1 UNK         0.0748 
     86 H86        30.2264   29.9641   -0.9345 H         1 UNK         0.0940 
     87 H87        29.9554   28.4427   -0.1505 H         1 UNK         0.0940 
     88 H88        29.2934   28.6623   -3.1179 H         1 UNK         0.0703 
     89 H89        27.9189   27.1230   -0.9455 H         1 UNK         0.3081 
     90 H90        27.5008   24.3665   -3.0950 H         1 UNK         0.0719 
     91 H91        28.6867   22.9797   -1.4384 H         1 UNK         0.0809 
     92 H92        29.8526   23.8830   -2.3913 H         1 UNK         0.0809 
     93 H93        29.4741   24.3964   -0.7525 H         1 UNK         0.0809 
     94 H94        27.1128   24.7840   -0.2486 H         1 UNK         0.2990 
     95 H95        23.9440   26.2904   -0.5229 H         1 UNK         0.0690 
     96 H96        23.2347   23.9738   -1.1667 H         1 UNK         0.0788 
     97 H97        22.9613   24.2772    0.5407 H         1 UNK         0.0788 
     98 H98        24.3357   23.2984    0.0274 H         1 UNK         0.0788 
     99 H99        25.0823   24.9863    1.7019 H         1 UNK         0.2993 
    100 H100       27.5335   27.3543    2.6213 H         1 UNK         0.0949 
    101 H101       24.7228   27.0515    3.8128 H         1 UNK         0.0767 
    102 H102       26.1317   27.7347    4.6251 H         1 UNK         0.0767 
    103 H103       25.4236   28.5627    3.2499 H         1 UNK         0.0767 
    104 H104       26.5595   25.3135    4.2064 H         1 UNK         0.3013 
    105 H105       26.4488   28.4115   -1.3949 H         1 UNK         0.3121 
    106 H106       24.6355   29.6026   -1.1521 H         1 UNK         0.0774 
    107 H107       25.8208   31.8762   -2.8269 H         1 UNK         0.0815 
    108 H108       24.1315   31.6311   -2.4234 H         1 UNK         0.0815 
    109 H109       24.9437   30.4953   -3.4870 H         1 UNK         0.0815 
    110 H110       27.1002   29.8152    0.5470 H         1 UNK         0.2987 
    111 H111       26.1654   31.3487    2.6837 H         1 UNK         0.0949 
    112 H112       28.4763   32.6335    1.0892 H         1 UNK         0.0806 
    113 H113       26.9170   33.3847    1.4229 H         1 UNK         0.0806 
    114 H114       28.0419   33.0828    2.7321 H         1 UNK         0.0806 
    115 H115       27.6475   31.0527    4.4998 H         1 UNK         0.3010 
    116 H116       29.5346   28.7800    4.2076 H         1 UNK         0.0829 
    117 H117       29.4936   28.8068    6.7008 H         1 UNK         0.0813 
    118 H118       28.4620   30.2297    6.6956 H         1 UNK         0.0813 
    119 H119       27.8606   28.6954    6.0704 H         1 UNK         0.0813 
    120 H120       31.6927   28.9851    5.2041 H         1 UNK         0.3038 
    121 H121       32.8165   31.5409    5.8343 H         1 UNK         0.0769 
    122 H122       34.5670   31.3667    3.9237 H         1 UNK         0.0811 
    123 H123       32.9645   31.8719    3.4224 H         1 UNK         0.0811 
    124 H124       33.4819   30.2200    3.1428 H         1 UNK         0.0811 
    125 H125       35.1962   31.2195    6.2998 H         1 UNK         0.3204 
    126 H126       35.4014   28.9629    8.0884 H         1 UNK         0.0748 
    127 H127       36.0419   31.2630    8.7593 H         1 UNK         0.0771 
    128 H128       37.4059   30.1714    8.9047 H         1 UNK         0.0771 
    129 H129       37.3219   31.2841    7.5453 H         1 UNK         0.0771 
    130 H130       35.3306   27.6300    5.8477 H         1 UNK         0.2980 
    131 H131       38.0407   26.8477    4.9727 H         1 UNK         0.0545 
    132 H132       38.5492   23.9186    6.9270 H         1 UNK         0.3459 
    133 H133       39.0145   24.7670    5.4759 H         1 UNK         0.3459 
    134 H134       36.6851   24.9156    3.8469 H         1 UNK         0.0616 
    135 H135       35.2514   25.7951    4.2783 H         1 UNK         0.0616 
    136 H136       35.1156   28.5076    3.5901 H         1 UNK         0.0634 
    137 H137       35.4326   28.9021    1.9255 H         1 UNK         0.0634 
@<TRIPOS>BOND
     1    1    2 1    
     2    1   72 1    
     3    1   73 1    
     4    1   74 1    
     5    2    3 2    
     6    2    4 am   BACKBONE|DICT|INTERRES
     7    4    5 1    
     8    4   75 1    
     9    5    6 1    
    10    5   35 1    
    11    5   76 1    
    12    6    7 1    
    13    6   77 1    
    14    6   78 1    
    15    7    8 1    
    16    8    9 1    
    17    8   79 1    
    18    8   80 1    
    19    9   10 ar   
    20    9   14 ar   
    21   10   11 ar   
    22   10   81 1    
    23   11   12 ar   
    24   11   71 1    
    25   12   13 ar   
    26   12   82 1    
    27   13   14 ar   
    28   13   15 1    
    29   14   83 1    
    30   15   16 1    
    31   15   84 1    
    32   15   85 1    
    33   16   17 1    
    34   17   18 1    
    35   17   86 1    
    36   17   87 1    
    37   18   19 1    
    38   18   37 1    
    39   18   88 1    
    40   19   20 am   BACKBONE|DICT|INTERRES
    41   19   89 1    
    42   20   21 2    
    43   20   22 1    
    44   22   23 1    
    45   22   24 1    
    46   22   90 1    
    47   23   91 1    
    48   23   92 1    
    49   23   93 1    
    50   24   25 am   BACKBONE|DICT|INTERRES
    51   24   94 1    
    52   25   26 2    
    53   25   27 1    
    54   27   28 1    
    55   27   29 1    
    56   27   95 1    
    57   28   96 1    
    58   28   97 1    
    59   28   98 1    
    60   29   30 am   BACKBONE|DICT|INTERRES
    61   29   99 1    
    62   30   31 2    
    63   30   32 1    
    64   32   33 1    
    65   32   34 1    
    66   32  100 1    
    67   33  101 1    
    68   33  102 1    
    69   33  103 1    
    70   34   35 am   BACKBONE|DICT|INTERRES
    71   34  104 1    
    72   35   36 2    
    73   37   38 2    
    74   37   39 am   BACKBONE|DICT|INTERRES
    75   39   40 1    
    76   39  105 1    
    77   40   41 1    
    78   40   42 1    
    79   40  106 1    
    80   41  107 1    
    81   41  108 1    
    82   41  109 1    
    83   42   43 2    
    84   42   44 am   BACKBONE|DICT|INTERRES
    85   44   45 1    
    86   44  110 1    
    87   45   46 1    
    88   45   47 1    
    89   45  111 1    
    90   46  112 1    
    91   46  113 1    
    92   46  114 1    
    93   47   48 2    
    94   47   49 am   BACKBONE|DICT|INTERRES
    95   49   50 1    
    96   49  115 1    
    97   50   51 1    
    98   50   52 1    
    99   50  116 1    
   100   51  117 1    
   101   51  118 1    
   102   51  119 1    
   103   52   53 2    
   104   52   54 am   BACKBONE|DICT|INTERRES
   105   54   55 1    
   106   54  120 1    
   107   55   56 1    
   108   55   57 1    
   109   55  121 1    
   110   56  122 1    
   111   56  123 1    
   112   56  124 1    
   113   57   58 2    
   114   57   59 am   BACKBONE|DICT|INTERRES
   115   59   60 1    
   116   59  125 1    
   117   60   61 1    
   118   60   62 1    
   119   60  126 1    
   120   61  127 1    
   121   61  128 1    
   122   61  129 1    
   123   62   63 2    
   124   62   64 am   BACKBONE|DICT|INTERRES
   125   64   65 1    
   126   64  130 1    
   127   65   66 1    
   128   65   69 1    
   129   65  131 1    
   130   66   67 am   BACKBONE|DICT|INTERRES
   131   66   68 2    
   132   67  132 1    
   133   67  133 1    
   134   69   70 1    
   135   69  134 1    
   136   69  135 1    
   137   70   71 1    
   138   71  136 1    
   139   71  137 1    
@<TRIPOS>SUBSTRUCTURE
     1 UNK         1 GROUP             0       ****    0 ROOT    
