@<TRIPOS>MOLECULE
3R136
137   139    1
SMALL
USER_CHARGES


@<TRIPOS>ATOM
      1 CA         31.6839   21.1422    3.8075 C.3       0 UNK        -0.1979 
      2 C          30.7588   20.6064    2.7243 C.2       0 UNK         0.4864 
      3 O          31.1014   19.6343    2.0500 O.2       0 UNK        -0.5359 
      4 N          29.5929   21.2348    2.5533 N.am      1 UNK        -0.4318 
      5 CA         28.5713   20.9040    1.5609 C.3       1 UNK         0.0824 
      6 C6         28.9705   21.2998    0.1096 C.3       12 UNK        -0.0944 
      7 S7         29.4836   23.0465   -0.0734 S.3       12 UNK        -0.2672 
      8 C8         31.2606   22.8463   -0.4071 C.3       12 UNK         0.0333 
      9 C9         32.0380   24.1064   -0.0630 C.ar      12 UNK        -0.0807 
     10 C10        32.8270   24.1506    1.0899 C.ar      12 UNK        -0.0894 
     11 C11        33.5637   25.2975    1.4099 C.ar      12 UNK        -0.0804 
     12 C12        33.5046   26.4031    0.5542 C.ar      12 UNK        -0.0824 
     13 C13        32.7274   26.3684   -0.6083 C.ar      12 UNK        -0.0762 
     14 C14        31.9946   25.2166   -0.9101 C.ar      12 UNK        -0.0782 
     15 C15        32.7256   27.5480   -1.5719 C.3       12 UNK         0.0230 
     16 S16        31.0868   28.3244   -1.7339 S.3       12 UNK        -0.2608 
     17 C17        30.9880   29.3227   -0.2120 C.3       12 UNK        -0.0989 
     18 CA         29.5694   29.2700    0.4119 C.3       5 UNK         0.0716 
     19 N          29.2011   27.9293    0.8788 N.am      5 UNK        -0.4135 
     20 C          29.6724   27.3058    1.9681 C.2       4 UNK         0.5031 
     21 O          30.5671   27.7672    2.6780 O.2       4 UNK        -0.5229 
     22 CA         29.0353   25.9574    2.3606 C.3       4 UNK         0.0329 
     23 CB         28.6606   25.9280    3.8576 C.3       4 UNK        -0.2001 
     24 N          27.8829   25.5357    1.5495 N.am      4 UNK        -0.4303 
     25 C          26.6913   26.1432    1.4167 C.2       3 UNK         0.5044 
     26 O          26.4151   27.2455    1.8904 O.2       3 UNK        -0.5152 
     27 CA         25.6312   25.3733    0.6243 C.3       3 UNK         0.0319 
     28 CB         25.9580   25.3816   -0.8829 C.3       3 UNK        -0.2001 
     29 N          25.5525   24.0124    1.1498 N.am      3 UNK        -0.4354 
     30 C          24.6219   23.0917    0.8834 C.2       2 UNK         0.4964 
     31 O          23.6742   23.2785    0.1183 O.2       2 UNK        -0.5047 
     32 CA         24.7975   21.7281    1.5899 C.3       2 UNK         0.0288 
     33 CB         23.7454   20.6915    1.1507 C.3       2 UNK        -0.2113 
     34 N          26.1364   21.1594    1.3858 N.am      2 UNK        -0.4145 
     35 C          27.2555   21.5672    2.0004 C.2       1 UNK         0.5006 
     36 O          27.2752   22.4665    2.8484 O.2       1 UNK        -0.5103 
     37 C          29.3595   30.3181    1.5273 C.2       5 UNK         0.5055 
     38 O          30.2788   31.0740    1.8469 O.2       5 UNK        -0.5220 
     39 N          28.1597   30.3141    2.1295 N.am      6 UNK        -0.4450 
     40 CA         27.7753   31.1302    3.2899 C.3       6 UNK         0.0367 
     41 CB         26.3352   30.7778    3.6939 C.3       6 UNK        -0.1929 
     42 C          27.9243   32.6513    3.1005 C.2       6 UNK         0.5070 
     43 O          28.1355   33.3643    4.0811 O.2       6 UNK        -0.5237 
     44 N          27.8293   33.1180    1.8495 N.am      7 UNK        -0.4739 
     45 CA         28.0342   34.5147    1.4599 C.3       7 UNK         0.0276 
     46 CB         27.2937   34.7652    0.1348 C.3       7 UNK        -0.1927 
     47 C          29.5190   34.9134    1.3313 C.2       7 UNK         0.5013 
     48 O          29.7929   36.1001    1.1432 O.2       7 UNK        -0.5193 
     49 N          30.4423   33.9443    1.3984 N.am      8 UNK        -0.4253 
     50 CA         31.8756   34.1373    1.1995 C.3       8 UNK         0.0242 
     51 CB         32.2512   33.7341   -0.2422 C.3       8 UNK        -0.2000 
     52 C          32.6526   33.3779    2.2842 C.2       8 UNK         0.4948 
     53 O          32.8255   33.9135    3.3796 O.2       8 UNK        -0.5275 
     54 N          33.1316   32.1692    1.9562 N.am      9 UNK        -0.4246 
     55 CA         33.9939   31.3362    2.7990 C.3       9 UNK         0.0261 
     56 CB         34.4840   30.1249    1.9886 C.3       9 UNK        -0.1959 
     57 C          33.3478   30.8664    4.1135 C.2       9 UNK         0.5033 
     58 O          34.0532   30.8048    5.1215 O.2       9 UNK        -0.5390 
     59 N          32.0445   30.5446    4.0728 N.am      10 UNK        -0.4215 
     60 CA         31.2126   30.0472    5.1771 C.3       10 UNK         0.0240 
     61 CB         30.8765   31.1973    6.1482 C.3       10 UNK        -0.1982 
     62 C          31.8203   28.8183    5.8835 C.2       10 UNK         0.4970 
     63 O          32.2498   28.9126    7.0356 O.2       10 UNK        -0.4916 
     64 N          31.8684   27.7004    5.1494 N.am      11 UNK        -0.4279 
     65 CA         32.4172   26.4008    5.5674 C.3       11 UNK         0.1003 
     66 C          31.8225   25.8506    6.8949 C.2       11 UNK         0.5709 
     67 N          32.6268   25.1686    7.6990 N.am      11 UNK        -0.7358 
     68 O          30.6335   25.9934    7.1748 O.2       11 UNK        -0.4999 
     69 C69        32.2808   25.3553    4.4232 C.3       12 UNK        -0.0954 
     70 S70        33.8252   24.4496    4.1028 S.3       12 UNK        -0.2268 
     71 C71        34.4609   25.3564    2.6485 C.3       12 UNK         0.0203 
     72 H72        32.6668   21.3588    3.3901 H         1 UNK         0.0888 
     73 H73        31.2995   22.0586    4.2549 H         1 UNK         0.0888 
     74 H74        31.8052   20.4022    4.5979 H         1 UNK         0.0888 
     75 H75        29.3224   22.0064    3.1517 H         1 UNK         0.3017 
     76 H76        28.4079   19.8247    1.5977 H         1 UNK         0.0873 
     77 H77        28.1487   21.1138   -0.5839 H         1 UNK         0.0745 
     78 H78        29.7752   20.6479   -0.2329 H         1 UNK         0.0745 
     79 H79        31.6510   22.0033    0.1649 H         1 UNK         0.0705 
     80 H80        31.4034   22.5954   -1.4591 H         1 UNK         0.0705 
     81 H81        32.8732   23.2841    1.7340 H         1 UNK         0.1334 
     82 H82        34.0858   27.2853    0.7823 H         1 UNK         0.1417 
     83 H83        31.3952   25.1820   -1.8099 H         1 UNK         0.1562 
     84 H84        33.0398   27.1944   -2.5549 H         1 UNK         0.0748 
     85 H85        33.4555   28.3030   -1.2749 H         1 UNK         0.0748 
     86 H86        31.2601   30.3449   -0.4786 H         1 UNK         0.0940 
     87 H87        31.7313   28.9808    0.5085 H         1 UNK         0.0940 
     88 H88        28.8542   29.5316   -0.3695 H         1 UNK         0.0703 
     89 H89        28.4655   27.4702    0.3638 H         1 UNK         0.3081 
     90 H90        29.8108   25.2074    2.1969 H         1 UNK         0.0719 
     91 H91        29.5197   26.1405    4.4920 H         1 UNK         0.0809 
     92 H92        27.8982   26.6692    4.0989 H         1 UNK         0.0809 
     93 H93        28.2813   24.9489    4.1503 H         1 UNK         0.0809 
     94 H94        28.0253   24.6664    1.0501 H         1 UNK         0.2990 
     95 H95        24.6679   25.8621    0.7838 H         1 UNK         0.0690 
     96 H96        25.1551   24.9333   -1.4679 H         1 UNK         0.0788 
     97 H97        26.8746   24.8334   -1.1042 H         1 UNK         0.0788 
     98 H98        26.0876   26.4008   -1.2492 H         1 UNK         0.0788 
     99 H99        26.2584   23.7614    1.8385 H         1 UNK         0.2993 
    100 H100       24.6570   21.9075    2.6583 H         1 UNK         0.0949 
    101 H101       23.8567   19.7560    1.6995 H         1 UNK         0.0767 
    102 H102       22.7343   21.0553    1.3395 H         1 UNK         0.0767 
    103 H103       23.8188   20.4677    0.0857 H         1 UNK         0.0767 
    104 H104       26.2076   20.4416    0.6787 H         1 UNK         0.3013 
    105 H105       27.4810   29.6271    1.8276 H         1 UNK         0.3121 
    106 H106       28.4304   30.8522    4.1152 H         1 UNK         0.0774 
    107 H107       26.0281   31.3392    4.5775 H         1 UNK         0.0815 
    108 H108       25.6256   31.0078    2.8982 H         1 UNK         0.0815 
    109 H109       26.2380   29.7188    3.9349 H         1 UNK         0.0815 
    110 H110       27.6481   32.4585    1.1067 H         1 UNK         0.2987 
    111 H111       27.5941   35.1607    2.2231 H         1 UNK         0.0949 
    112 H112       27.6967   34.1555   -0.6749 H         1 UNK         0.0806 
    113 H113       26.2300   34.5445    0.2260 H         1 UNK         0.0806 
    114 H114       27.3791   35.8091   -0.1708 H         1 UNK         0.0806 
    115 H115       30.1537   32.9934    1.6132 H         1 UNK         0.3010 
    116 H116       32.1355   35.1904    1.3284 H         1 UNK         0.0829 
    117 H117       31.7915   34.4096   -0.9640 H         1 UNK         0.0813 
    118 H118       33.3295   33.7860   -0.4000 H         1 UNK         0.0813 
    119 H119       31.9226   32.7244   -0.4884 H         1 UNK         0.0813 
    120 H120       32.9090   31.8078    1.0412 H         1 UNK         0.3038 
    121 H121       34.8645   31.9406    3.0626 H         1 UNK         0.0769 
    122 H122       35.1812   29.5228    2.5730 H         1 UNK         0.0811 
    123 H123       35.0047   30.4324    1.0816 H         1 UNK         0.0811 
    124 H124       33.6579   29.4749    1.7028 H         1 UNK         0.0811 
    125 H125       31.5594   30.6570    3.1850 H         1 UNK         0.3204 
    126 H126       30.2793   29.7064    4.7294 H         1 UNK         0.0748 
    127 H127       30.2118   30.8563    6.9428 H         1 UNK         0.0771 
    128 H128       31.7720   31.6020    6.6212 H         1 UNK         0.0771 
    129 H129       30.3737   32.0152    5.6315 H         1 UNK         0.0771 
    130 H130       31.4656   27.7296    4.2133 H         1 UNK         0.2980 
    131 H131       33.4758   26.5987    5.7464 H         1 UNK         0.0545 
    132 H132       33.5952   25.0202    7.4609 H         1 UNK         0.3459 
    133 H133       32.2565   24.7884    8.5558 H         1 UNK         0.3459 
    134 H134       31.9786   25.8305    3.4928 H         1 UNK         0.0616 
    135 H135       31.4944   24.6244    4.6219 H         1 UNK         0.0616 
    136 H136       35.4378   24.9486    2.3867 H         1 UNK         0.0634 
    137 H137       34.6265   26.3938    2.9446 H         1 UNK         0.0634 
@<TRIPOS>BOND
     1    1    2 1    
     2    1   72 1    
     3    1   73 1    
     4    1   74 1    
     5    2    3 2    
     6    2    4 am   BACKBONE|DICT|INTERRES
     7    4    5 1    
     8    4   75 1    
     9    5    6 1    
    10    5   35 1    
    11    5   76 1    
    12    6    7 1    
    13    6   77 1    
    14    6   78 1    
    15    7    8 1    
    16    8    9 1    
    17    8   79 1    
    18    8   80 1    
    19    9   10 ar   
    20    9   14 ar   
    21   10   11 ar   
    22   10   81 1    
    23   11   12 ar   
    24   11   71 1    
    25   12   13 ar   
    26   12   82 1    
    27   13   14 ar   
    28   13   15 1    
    29   14   83 1    
    30   15   16 1    
    31   15   84 1    
    32   15   85 1    
    33   16   17 1    
    34   17   18 1    
    35   17   86 1    
    36   17   87 1    
    37   18   19 1    
    38   18   37 1    
    39   18   88 1    
    40   19   20 am   BACKBONE|DICT|INTERRES
    41   19   89 1    
    42   20   21 2    
    43   20   22 1    
    44   22   23 1    
    45   22   24 1    
    46   22   90 1    
    47   23   91 1    
    48   23   92 1    
    49   23   93 1    
    50   24   25 am   BACKBONE|DICT|INTERRES
    51   24   94 1    
    52   25   26 2    
    53   25   27 1    
    54   27   28 1    
    55   27   29 1    
    56   27   95 1    
    57   28   96 1    
    58   28   97 1    
    59   28   98 1    
    60   29   30 am   BACKBONE|DICT|INTERRES
    61   29   99 1    
    62   30   31 2    
    63   30   32 1    
    64   32   33 1    
    65   32   34 1    
    66   32  100 1    
    67   33  101 1    
    68   33  102 1    
    69   33  103 1    
    70   34   35 am   BACKBONE|DICT|INTERRES
    71   34  104 1    
    72   35   36 2    
    73   37   38 2    
    74   37   39 am   BACKBONE|DICT|INTERRES
    75   39   40 1    
    76   39  105 1    
    77   40   41 1    
    78   40   42 1    
    79   40  106 1    
    80   41  107 1    
    81   41  108 1    
    82   41  109 1    
    83   42   43 2    
    84   42   44 am   BACKBONE|DICT|INTERRES
    85   44   45 1    
    86   44  110 1    
    87   45   46 1    
    88   45   47 1    
    89   45  111 1    
    90   46  112 1    
    91   46  113 1    
    92   46  114 1    
    93   47   48 2    
    94   47   49 am   BACKBONE|DICT|INTERRES
    95   49   50 1    
    96   49  115 1    
    97   50   51 1    
    98   50   52 1    
    99   50  116 1    
   100   51  117 1    
   101   51  118 1    
   102   51  119 1    
   103   52   53 2    
   104   52   54 am   BACKBONE|DICT|INTERRES
   105   54   55 1    
   106   54  120 1    
   107   55   56 1    
   108   55   57 1    
   109   55  121 1    
   110   56  122 1    
   111   56  123 1    
   112   56  124 1    
   113   57   58 2    
   114   57   59 am   BACKBONE|DICT|INTERRES
   115   59   60 1    
   116   59  125 1    
   117   60   61 1    
   118   60   62 1    
   119   60  126 1    
   120   61  127 1    
   121   61  128 1    
   122   61  129 1    
   123   62   63 2    
   124   62   64 am   BACKBONE|DICT|INTERRES
   125   64   65 1    
   126   64  130 1    
   127   65   66 1    
   128   65   69 1    
   129   65  131 1    
   130   66   67 am   BACKBONE|DICT|INTERRES
   131   66   68 2    
   132   67  132 1    
   133   67  133 1    
   134   69   70 1    
   135   69  134 1    
   136   69  135 1    
   137   70   71 1    
   138   71  136 1    
   139   71  137 1    
@<TRIPOS>SUBSTRUCTURE
     1 UNK         1 GROUP             0       ****    0 ROOT    
