@<TRIPOS>MOLECULE
3R136
137   139    1
SMALL
USER_CHARGES


@<TRIPOS>ATOM
      1 CA         26.4668   21.4711    3.6999 C.3       0 UNK        -0.1979 
      2 C          26.9887   20.6851    2.5055 C.2       0 UNK         0.4864 
      3 O          27.0426   19.4557    2.5577 O.2       0 UNK        -0.5359 
      4 N          27.3716   21.3866    1.4348 N.am      1 UNK        -0.4318 
      5 CA         27.8610   20.8274    0.1746 C.3       1 UNK         0.0824 
      6 C6         29.2946   20.2204    0.2680 C.3       12 UNK        -0.0944 
      7 S7         30.5983   21.4269    0.7004 S.3       12 UNK        -0.2672 
      8 C8         30.9133   21.0298    2.4490 C.3       12 UNK         0.0333 
      9 C9         31.1664   22.3041    3.2341 C.ar      12 UNK        -0.0807 
     10 C10        32.4676   22.7363    3.5057 C.ar      12 UNK        -0.0894 
     11 C11        32.6837   23.9430    4.1800 C.ar      12 UNK        -0.0804 
     12 C12        31.5884   24.7148    4.5819 C.ar      12 UNK        -0.0824 
     13 C13        30.2833   24.2889    4.3195 C.ar      12 UNK        -0.0762 
     14 C14        30.0826   23.0727    3.6619 C.ar      12 UNK        -0.0782 
     15 C15        29.0934   25.1469    4.7285 C.3       12 UNK         0.0230 
     16 S16        27.9936   25.4667    3.3139 S.3       12 UNK        -0.2608 
     17 C17        26.9837   26.8523    3.9292 C.3       12 UNK        -0.0989 
     18 CA         27.5254   28.2243    3.4568 C.3       5 UNK         0.0716 
     19 N          27.7077   28.2758    2.0022 N.am      5 UNK        -0.4135 
     20 C          28.1974   29.3022    1.2965 C.2       4 UNK         0.5031 
     21 O          28.5513   30.3709    1.7971 O.2       4 UNK        -0.5229 
     22 CA         28.3468   29.0734   -0.2205 C.3       4 UNK         0.0329 
     23 CB         28.8227   30.3349   -0.9653 C.3       4 UNK        -0.2001 
     24 N          29.2725   27.9747   -0.5161 N.am      4 UNK        -0.4303 
     25 C          28.9712   26.6712   -0.4578 C.2       3 UNK         0.5044 
     26 O          27.8621   26.2439   -0.1283 O.2       3 UNK        -0.5152 
     27 CA         30.1164   25.6924   -0.7808 C.3       3 UNK         0.0319 
     28 CB         30.9188   25.3665    0.4897 C.3       3 UNK        -0.2001 
     29 N          29.6391   24.4399   -1.3708 N.am      3 UNK        -0.4354 
     30 C          29.0359   24.3264   -2.5640 C.2       2 UNK         0.4964 
     31 O          28.8655   25.2742   -3.3327 O.2       2 UNK        -0.5047 
     32 CA         28.5642   22.9235   -3.0009 C.3       2 UNK         0.0288 
     33 CB         29.4422   22.3927   -4.1473 C.3       2 UNK        -0.2113 
     34 N          28.5542   21.9330   -1.9197 N.am      2 UNK        -0.4145 
     35 C          27.6577   21.8915   -0.9245 C.2       1 UNK         0.5006 
     36 O          26.6979   22.6631   -0.8476 O.2       1 UNK        -0.5103 
     37 C          26.6118   29.3619    3.9492 C.2       5 UNK         0.5055 
     38 O          25.5244   29.5437    3.3967 O.2       5 UNK        -0.5220 
     39 N          27.0816   30.1156    4.9538 N.am      6 UNK        -0.4450 
     40 CA         26.4658   31.2927    5.5902 C.3       6 UNK         0.0367 
     41 CB         25.1013   30.9494    6.2201 C.3       6 UNK        -0.1929 
     42 C          26.3620   32.5416    4.6910 C.2       6 UNK         0.5070 
     43 O          26.4712   33.6552    5.2051 O.2       6 UNK        -0.5237 
     44 N          26.1700   32.3529    3.3799 N.am      7 UNK        -0.4739 
     45 CA         26.1459   33.4036    2.3602 C.3       7 UNK         0.0276 
     46 CB         25.6295   32.8096    1.0399 C.3       7 UNK        -0.1927 
     47 C          27.5161   34.0716    2.1512 C.2       7 UNK         0.5013 
     48 O          27.5636   35.2622    1.8378 O.2       7 UNK        -0.5193 
     49 N          28.5955   33.3045    2.3353 N.am      8 UNK        -0.4253 
     50 CA         29.9815   33.7524    2.2709 C.3       8 UNK         0.0242 
     51 CB         30.5237   33.5049    0.8509 C.3       8 UNK        -0.2000 
     52 C          30.8051   32.9986    3.3238 C.2       8 UNK         0.4948 
     53 O          30.2954   32.0889    3.9868 O.2       8 UNK        -0.5275 
     54 N          32.0850   33.3728    3.4452 N.am      9 UNK        -0.4246 
     55 CA         33.0822   32.7036    4.2832 C.3       9 UNK         0.0261 
     56 CB         34.2586   33.6668    4.5298 C.3       9 UNK        -0.1959 
     57 C          33.5321   31.3771    3.6413 C.2       9 UNK         0.5033 
     58 O          34.6426   31.2911    3.1103 O.2       9 UNK        -0.5390 
     59 N          32.6340   30.3833    3.6647 N.am      10 UNK        -0.4215 
     60 CA         32.8067   29.0432    3.1010 C.3       10 UNK         0.0240 
     61 CB         31.5559   28.2020    3.4003 C.3       10 UNK        -0.1982 
     62 C          34.0789   28.3462    3.6132 C.2       10 UNK         0.4970 
     63 O          34.2405   28.1862    4.8249 O.2       10 UNK        -0.4916 
     64 N          34.9489   27.9734    2.6679 N.am      11 UNK        -0.4279 
     65 CA         36.2789   27.3752    2.8783 C.3       11 UNK         0.1003 
     66 C          37.3456   28.3499    3.4663 C.2       11 UNK         0.5709 
     67 N          37.0912   29.6504    3.5626 N.am      11 UNK        -0.7358 
     68 O          38.4461   27.9255    3.8120 O.2       11 UNK        -0.4999 
     69 C69        36.2526   26.0073    3.6239 C.3       12 UNK        -0.0954 
     70 S70        35.0062   24.8457    2.9636 S.3       12 UNK        -0.2268 
     71 C71        34.0969   24.4169    4.4815 C.3       12 UNK         0.0203 
     72 H72        26.4499   22.5441    3.5072 H         1 UNK         0.0888 
     73 H73        25.4524   21.1556    3.9424 H         1 UNK         0.0888 
     74 H74        27.0968   21.2928    4.5709 H         1 UNK         0.0888 
     75 H75        27.2409   22.3901    1.4115 H         1 UNK         0.3017 
     76 H76        27.1842   20.0147   -0.0980 H         1 UNK         0.0873 
     77 H77        29.3023   19.4059    0.9933 H         1 UNK         0.0745 
     78 H78        29.5688   19.7436   -0.6743 H         1 UNK         0.0745 
     79 H79        30.0620   20.5044    2.8839 H         1 UNK         0.0705 
     80 H80        31.7650   20.3517    2.5191 H         1 UNK         0.0705 
     81 H81        33.3126   22.1467    3.1769 H         1 UNK         0.1334 
     82 H82        31.7541   25.6516    5.0962 H         1 UNK         0.1417 
     83 H83        29.0774   22.7434    3.4449 H         1 UNK         0.1562 
     84 H84        29.4330   26.0997    5.1377 H         1 UNK         0.0748 
     85 H85        28.5344   24.6432    5.5183 H         1 UNK         0.0748 
     86 H86        26.9315   26.8075    5.0190 H         1 UNK         0.0940 
     87 H87        25.9630   26.7010    3.5713 H         1 UNK         0.0940 
     88 H88        28.5130   28.3648    3.8992 H         1 UNK         0.0703 
     89 H89        27.4868   27.4234    1.4974 H         1 UNK         0.3081 
     90 H90        27.3569   28.8177   -0.6047 H         1 UNK         0.0719 
     91 H91        29.8354   30.6144   -0.6752 H         1 UNK         0.0809 
     92 H92        28.8141   30.1835   -2.0448 H         1 UNK         0.0809 
     93 H93        28.1750   31.1869   -0.7546 H         1 UNK         0.0809 
     94 H94        30.2160   28.2417   -0.7574 H         1 UNK         0.2990 
     95 H95        30.7846   26.1643   -1.5042 H         1 UNK         0.0690 
     96 H96        31.7385   24.6780    0.2827 H         1 UNK         0.0788 
     97 H97        30.2913   24.9135    1.2586 H         1 UNK         0.0788 
     98 H98        31.3575   26.2685    0.9149 H         1 UNK         0.0788 
     99 H99        29.7275   23.6126   -0.7991 H         1 UNK         0.2993 
    100 H100       27.5435   23.0327   -3.3745 H         1 UNK         0.0949 
    101 H101       29.4443   23.0838   -4.9915 H         1 UNK         0.0767 
    102 H102       30.4783   22.2588   -3.8333 H         1 UNK         0.0767 
    103 H103       29.0757   21.4350   -4.5177 H         1 UNK         0.0767 
    104 H104       29.3256   21.2811   -1.8983 H         1 UNK         0.3013 
    105 H105       28.0122   29.9071    5.2898 H         1 UNK         0.3121 
    106 H106       27.1393   31.5635    6.4051 H         1 UNK         0.0774 
    107 H107       24.7151   31.7951    6.7906 H         1 UNK         0.0815 
    108 H108       24.3527   30.7020    5.4671 H         1 UNK         0.0815 
    109 H109       25.1809   30.1058    6.9056 H         1 UNK         0.0815 
    110 H110       26.0419   31.3962    3.0647 H         1 UNK         0.2987 
    111 H111       25.4486   34.1775    2.6885 H         1 UNK         0.0949 
    112 H112       26.2728   32.0046    0.6828 H         1 UNK         0.0806 
    113 H113       24.6221   32.4086    1.1525 H         1 UNK         0.0806 
    114 H114       25.5906   33.5693    0.2579 H         1 UNK         0.0806 
    115 H115       28.4782   32.3262    2.5862 H         1 UNK         0.3010 
    116 H116       30.0363   34.8176    2.5056 H         1 UNK         0.0829 
    117 H117       29.8981   33.9836    0.0972 H         1 UNK         0.0813 
    118 H118       31.5314   33.9039    0.7315 H         1 UNK         0.0813 
    119 H119       30.5645   32.4396    0.6235 H         1 UNK         0.0813 
    120 H120       32.4299   34.1115    2.8491 H         1 UNK         0.3038 
    121 H121       32.6342   32.4704    5.2518 H         1 UNK         0.0769 
    122 H122       33.9306   34.5702    5.0441 H         1 UNK         0.0811 
    123 H123       34.7410   33.9667    3.5986 H         1 UNK         0.0811 
    124 H124       35.0203   33.1980    5.1544 H         1 UNK         0.0811 
    125 H125       31.7222   30.6026    4.0525 H         1 UNK         0.3204 
    126 H126       32.8807   29.1603    2.0180 H         1 UNK         0.0748 
    127 H127       30.6776   28.6213    2.9113 H         1 UNK         0.0771 
    128 H128       31.6729   27.1814    3.0365 H         1 UNK         0.0771 
    129 H129       31.3538   28.1450    4.4704 H         1 UNK         0.0771 
    130 H130       34.7249   28.1742    1.7046 H         1 UNK         0.2980 
    131 H131       36.6401   27.1681    1.8706 H         1 UNK         0.0545 
    132 H132       36.1924   30.0385    3.2947 H         1 UNK         0.3459 
    133 H133       37.8033   30.2592    3.9322 H         1 UNK         0.3459 
    134 H134       36.0900   26.1651    4.6908 H         1 UNK         0.0616 
    135 H135       37.2247   25.5182    3.5433 H         1 UNK         0.0616 
    136 H136       34.0610   25.2826    5.1445 H         1 UNK         0.0634 
    137 H137       34.6404   23.6380    5.0178 H         1 UNK         0.0634 
@<TRIPOS>BOND
     1    1    2 1    
     2    1   72 1    
     3    1   73 1    
     4    1   74 1    
     5    2    3 2    
     6    2    4 am   BACKBONE|DICT|INTERRES
     7    4    5 1    
     8    4   75 1    
     9    5    6 1    
    10    5   35 1    
    11    5   76 1    
    12    6    7 1    
    13    6   77 1    
    14    6   78 1    
    15    7    8 1    
    16    8    9 1    
    17    8   79 1    
    18    8   80 1    
    19    9   10 ar   
    20    9   14 ar   
    21   10   11 ar   
    22   10   81 1    
    23   11   12 ar   
    24   11   71 1    
    25   12   13 ar   
    26   12   82 1    
    27   13   14 ar   
    28   13   15 1    
    29   14   83 1    
    30   15   16 1    
    31   15   84 1    
    32   15   85 1    
    33   16   17 1    
    34   17   18 1    
    35   17   86 1    
    36   17   87 1    
    37   18   19 1    
    38   18   37 1    
    39   18   88 1    
    40   19   20 am   BACKBONE|DICT|INTERRES
    41   19   89 1    
    42   20   21 2    
    43   20   22 1    
    44   22   23 1    
    45   22   24 1    
    46   22   90 1    
    47   23   91 1    
    48   23   92 1    
    49   23   93 1    
    50   24   25 am   BACKBONE|DICT|INTERRES
    51   24   94 1    
    52   25   26 2    
    53   25   27 1    
    54   27   28 1    
    55   27   29 1    
    56   27   95 1    
    57   28   96 1    
    58   28   97 1    
    59   28   98 1    
    60   29   30 am   BACKBONE|DICT|INTERRES
    61   29   99 1    
    62   30   31 2    
    63   30   32 1    
    64   32   33 1    
    65   32   34 1    
    66   32  100 1    
    67   33  101 1    
    68   33  102 1    
    69   33  103 1    
    70   34   35 am   BACKBONE|DICT|INTERRES
    71   34  104 1    
    72   35   36 2    
    73   37   38 2    
    74   37   39 am   BACKBONE|DICT|INTERRES
    75   39   40 1    
    76   39  105 1    
    77   40   41 1    
    78   40   42 1    
    79   40  106 1    
    80   41  107 1    
    81   41  108 1    
    82   41  109 1    
    83   42   43 2    
    84   42   44 am   BACKBONE|DICT|INTERRES
    85   44   45 1    
    86   44  110 1    
    87   45   46 1    
    88   45   47 1    
    89   45  111 1    
    90   46  112 1    
    91   46  113 1    
    92   46  114 1    
    93   47   48 2    
    94   47   49 am   BACKBONE|DICT|INTERRES
    95   49   50 1    
    96   49  115 1    
    97   50   51 1    
    98   50   52 1    
    99   50  116 1    
   100   51  117 1    
   101   51  118 1    
   102   51  119 1    
   103   52   53 2    
   104   52   54 am   BACKBONE|DICT|INTERRES
   105   54   55 1    
   106   54  120 1    
   107   55   56 1    
   108   55   57 1    
   109   55  121 1    
   110   56  122 1    
   111   56  123 1    
   112   56  124 1    
   113   57   58 2    
   114   57   59 am   BACKBONE|DICT|INTERRES
   115   59   60 1    
   116   59  125 1    
   117   60   61 1    
   118   60   62 1    
   119   60  126 1    
   120   61  127 1    
   121   61  128 1    
   122   61  129 1    
   123   62   63 2    
   124   62   64 am   BACKBONE|DICT|INTERRES
   125   64   65 1    
   126   64  130 1    
   127   65   66 1    
   128   65   69 1    
   129   65  131 1    
   130   66   67 am   BACKBONE|DICT|INTERRES
   131   66   68 2    
   132   67  132 1    
   133   67  133 1    
   134   69   70 1    
   135   69  134 1    
   136   69  135 1    
   137   70   71 1    
   138   71  136 1    
   139   71  137 1    
@<TRIPOS>SUBSTRUCTURE
     1 UNK         1 GROUP             0       ****    0 ROOT    
