@<TRIPOS>MOLECULE
3R136
137   139    1
SMALL
USER_CHARGES


@<TRIPOS>ATOM
      1 CA         33.7513   22.9252   -0.6730 C.3       0 UNK        -0.1979 
      2 C          32.3070   22.7724   -0.2206 C.2       0 UNK         0.4864 
      3 O          31.6351   21.8270   -0.6363 O.2       0 UNK        -0.5359 
      4 N          31.8181   23.7106    0.6016 N.am      1 UNK        -0.4318 
      5 CA         30.4798   23.7928    1.2145 C.3       1 UNK         0.0824 
      6 C6         30.0831   22.5554    2.0628 C.3       12 UNK        -0.0944 
      7 S7         31.3040   22.2109    3.3762 S.3       12 UNK        -0.2672 
      8 C8         30.3149   22.4022    4.8936 C.3       12 UNK         0.0333 
      9 C9         29.8123   23.8244    5.1163 C.ar      12 UNK        -0.0807 
     10 C10        30.7114   24.8903    5.2261 C.ar      12 UNK        -0.0894 
     11 C11        30.2543   26.1887    5.4839 C.ar      12 UNK        -0.0804 
     12 C12        28.8826   26.4092    5.6528 C.ar      12 UNK        -0.0824 
     13 C13        27.9751   25.3475    5.5687 C.ar      12 UNK        -0.0762 
     14 C14        28.4451   24.0626    5.2830 C.ar      12 UNK        -0.0782 
     15 C15        26.4960   25.5599    5.8635 C.3       12 UNK         0.0230 
     16 S16        25.4951   25.7138    4.3520 S.3       12 UNK        -0.2608 
     17 C17        25.7546   27.4650    3.9155 C.3       12 UNK        -0.0989 
     18 CA         26.1887   27.6423    2.4400 C.3       5 UNK         0.0716 
     19 N          25.1500   27.1666    1.5226 N.am      5 UNK        -0.4135 
     20 C          25.2920   27.0004    0.2040 C.2       4 UNK         0.5031 
     21 O          26.3112   27.2769   -0.4342 O.2       4 UNK        -0.5229 
     22 CA         24.0833   26.4172   -0.5334 C.3       4 UNK         0.0329 
     23 CB         23.2323   27.5238   -1.1794 C.3       4 UNK        -0.2001 
     24 N          24.5917   25.5164   -1.5593 N.am      4 UNK        -0.4303 
     25 C          24.0312   24.3634   -1.9392 C.2       3 UNK         0.5044 
     26 O          22.9396   23.9641   -1.5314 O.2       3 UNK        -0.5152 
     27 CA         24.8186   23.5016   -2.9442 C.3       3 UNK         0.0319 
     28 CB         24.2676   23.6981   -4.3661 C.3       3 UNK        -0.2001 
     29 N          26.2597   23.7770   -2.9456 N.am      3 UNK        -0.4354 
     30 C          27.1109   23.4196   -1.9730 C.2       2 UNK         0.4964 
     31 O          26.7764   22.7592   -0.9866 O.2       2 UNK        -0.5047 
     32 CA         28.5812   23.8386   -2.1775 C.3       2 UNK         0.0288 
     33 CB         28.7268   25.3009   -2.6580 C.3       2 UNK        -0.2113 
     34 N          29.4327   23.6013   -1.0060 N.am      2 UNK        -0.4145 
     35 C          29.3730   24.1723    0.2070 C.2       1 UNK         0.5006 
     36 O          28.5255   24.9998    0.5428 O.2       1 UNK        -0.5103 
     37 C          26.5781   29.1117    2.1816 C.2       5 UNK         0.5055 
     38 O          25.7880   29.8892    1.6385 O.2       5 UNK        -0.5220 
     39 N          27.7769   29.4664    2.6484 N.am      6 UNK        -0.4450 
     40 CA         28.3203   30.8187    2.6997 C.3       6 UNK         0.0367 
     41 CB         29.2599   31.0321    1.4972 C.3       6 UNK        -0.1929 
     42 C          29.0446   30.9822    4.0458 C.2       6 UNK         0.5070 
     43 O          28.9791   30.0826    4.8887 O.2       6 UNK        -0.5237 
     44 N          29.7262   32.1197    4.2297 N.am      7 UNK        -0.4739 
     45 CA         30.6059   32.3827    5.3741 C.3       7 UNK         0.0276 
     46 CB         31.0623   33.8500    5.3186 C.3       7 UNK        -0.1927 
     47 C          31.8294   31.4488    5.3810 C.2       7 UNK         0.5013 
     48 O          32.2336   30.9733    4.3187 O.2       7 UNK        -0.5193 
     49 N          32.4365   31.2491    6.5590 N.am      8 UNK        -0.4253 
     50 CA         33.5756   30.3458    6.7876 C.3       8 UNK         0.0242 
     51 CB         33.9726   30.3974    8.2718 C.3       8 UNK        -0.2000 
     52 C          34.8083   30.5922    5.8943 C.2       8 UNK         0.4948 
     53 O          35.5294   29.6429    5.5869 O.2       8 UNK        -0.5275 
     54 N          35.0200   31.8495    5.4842 N.am      9 UNK        -0.4246 
     55 CA         36.0785   32.2534    4.5561 C.3       9 UNK         0.0261 
     56 CB         36.4517   33.7176    4.8446 C.3       9 UNK        -0.1959 
     57 C          35.6939   32.0851    3.0722 C.2       9 UNK         0.5033 
     58 O          36.5839   32.1537    2.2229 O.2       9 UNK        -0.5390 
     59 N          34.3996   31.9070    2.7738 N.am      10 UNK        -0.4215 
     60 CA         33.8453   31.8681    1.4186 C.3       10 UNK         0.0240 
     61 CB         32.6519   32.8352    1.3442 C.3       10 UNK        -0.1982 
     62 C          33.4110   30.4567    0.9955 C.2       10 UNK         0.4970 
     63 O          33.4867   30.1487   -0.1943 O.2       10 UNK        -0.4916 
     64 N          32.9593   29.6300    1.9490 N.am      11 UNK        -0.4279 
     65 CA         32.4811   28.2579    1.7115 C.3       11 UNK         0.1003 
     66 C          33.5677   27.2269    1.2796 C.2       11 UNK         0.5709 
     67 N          34.8555   27.5444    1.3385 N.am      11 UNK        -0.7358 
     68 O          33.2305   26.1169    0.8773 O.2       11 UNK        -0.4999 
     69 C69        31.6098   27.7443    2.8898 C.3       12 UNK        -0.0954 
     70 S70        32.5564   27.4048    4.4118 S.3       12 UNK        -0.2268 
     71 C71        31.2336   27.3468    5.6631 C.3       12 UNK         0.0203 
     72 H72        34.2357   23.7824   -0.2057 H         1 UNK         0.0888 
     73 H73        34.3209   22.0331   -0.4143 H         1 UNK         0.0888 
     74 H74        33.7946   23.0576   -1.7536 H         1 UNK         0.0888 
     75 H75        32.4154   24.5088    0.8159 H         1 UNK         0.3017 
     76 H76        30.5451   24.6347    1.9051 H         1 UNK         0.0873 
     77 H77        29.9881   21.6662    1.4379 H         1 UNK         0.0745 
     78 H78        29.1016   22.7079    2.5160 H         1 UNK         0.0745 
     79 H79        30.9298   22.1135    5.7470 H         1 UNK         0.0705 
     80 H80        29.4860   21.6932    4.8626 H         1 UNK         0.0705 
     81 H81        31.7715   24.7036    5.1224 H         1 UNK         0.1334 
     82 H82        28.5267   27.4034    5.8878 H         1 UNK         0.1417 
     83 H83        27.7436   23.2411    5.2266 H         1 UNK         0.1562 
     84 H84        26.3479   26.4346    6.4989 H         1 UNK         0.0748 
     85 H85        26.1206   24.7120    6.4386 H         1 UNK         0.0748 
     86 H86        26.4986   27.8914    4.5905 H         1 UNK         0.0940 
     87 H87        24.8296   28.0105    4.1137 H         1 UNK         0.0940 
     88 H88        27.0779   27.0315    2.2629 H         1 UNK         0.0703 
     89 H89        24.2685   26.9270    1.9510 H         1 UNK         0.3081 
     90 H90        23.4721   25.8574    0.1783 H         1 UNK         0.0719 
     91 H91        22.8523   28.2144   -0.4255 H         1 UNK         0.0809 
     92 H92        23.8101   28.1081   -1.8967 H         1 UNK         0.0809 
     93 H93        22.3715   27.1069   -1.7026 H         1 UNK         0.0809 
     94 H94        25.5174   25.7495   -1.8953 H         1 UNK         0.2990 
     95 H95        24.6713   22.4564   -2.6634 H         1 UNK         0.0690 
     96 H96        24.3942   24.7252   -4.7108 H         1 UNK         0.0788 
     97 H97        23.2012   23.4708   -4.4058 H         1 UNK         0.0788 
     98 H98        24.7634   23.0393   -5.0793 H         1 UNK         0.0788 
     99 H99        26.6182   24.2960   -3.7343 H         1 UNK         0.2993 
    100 H100       28.9736   23.1888   -2.9612 H         1 UNK         0.0949 
    101 H101       28.2481   26.0016   -1.9726 H         1 UNK         0.0767 
    102 H102       29.7761   25.5851   -2.7401 H         1 UNK         0.0767 
    103 H103       28.2837   25.4503   -3.6428 H         1 UNK         0.0767 
    104 H104       30.1537   22.8925   -1.1209 H         1 UNK         0.3013 
    105 H105       28.3120   28.7961    3.1856 H         1 UNK         0.3121 
    106 H106       27.5096   31.5498    2.6669 H         1 UNK         0.0774 
    107 H107       29.5778   32.0717    1.4215 H         1 UNK         0.0815 
    108 H108       30.1563   30.4160    1.5710 H         1 UNK         0.0815 
    109 H109       28.7633   30.7847    0.5587 H         1 UNK         0.0815 
    110 H110       29.7352   32.8047    3.4890 H         1 UNK         0.2987 
    111 H111       30.0350   32.2163    6.2903 H         1 UNK         0.0949 
    112 H112       30.2110   34.5309    5.3330 H         1 UNK         0.0806 
    113 H113       31.6874   34.1021    6.1763 H         1 UNK         0.0806 
    114 H114       31.6436   34.0591    4.4193 H         1 UNK         0.0806 
    115 H115       32.0557   31.7008    7.3784 H         1 UNK         0.3010 
    116 H116       33.2284   29.3354    6.5696 H         1 UNK         0.0829 
    117 H117       33.1453   30.0989    8.9159 H         1 UNK         0.0813 
    118 H118       34.8008   29.7178    8.4786 H         1 UNK         0.0813 
    119 H119       34.2896   31.3973    8.5707 H         1 UNK         0.0813 
    120 H120       34.3871   32.5700    5.8000 H         1 UNK         0.3038 
    121 H121       36.9634   31.6384    4.7342 H         1 UNK         0.0769 
    122 H122       37.2664   34.0482    4.1986 H         1 UNK         0.0811 
    123 H123       36.7862   33.8467    5.8742 H         1 UNK         0.0811 
    124 H124       35.6100   34.3908    4.6767 H         1 UNK         0.0811 
    125 H125       33.7329   31.7660    3.5281 H         1 UNK         0.3204 
    126 H126       34.5915   32.2057    0.6961 H         1 UNK         0.0748 
    127 H127       32.1904   32.8166    0.3558 H         1 UNK         0.0771 
    128 H128       31.8818   32.5799    2.0720 H         1 UNK         0.0771 
    129 H129       32.9642   33.8616    1.5368 H         1 UNK         0.0771 
    130 H130       32.8619   29.9738    2.9008 H         1 UNK         0.2980 
    131 H131       31.8107   28.3243    0.8526 H         1 UNK         0.0545 
    132 H132       35.5447   26.8674    1.0540 H         1 UNK         0.3459 
    133 H133       35.1404   28.4483    1.6778 H         1 UNK         0.3459 
    134 H134       30.8331   28.4749    3.1198 H         1 UNK         0.0616 
    135 H135       31.0843   26.8327    2.6038 H         1 UNK         0.0616 
    136 H136       31.6954   27.2549    6.6466 H         1 UNK         0.0634 
    137 H137       30.7135   28.3044    5.6591 H         1 UNK         0.0634 
@<TRIPOS>BOND
     1    1    2 1    
     2    1   72 1    
     3    1   73 1    
     4    1   74 1    
     5    2    3 2    
     6    2    4 am   BACKBONE|DICT|INTERRES
     7    4    5 1    
     8    4   75 1    
     9    5    6 1    
    10    5   35 1    
    11    5   76 1    
    12    6    7 1    
    13    6   77 1    
    14    6   78 1    
    15    7    8 1    
    16    8    9 1    
    17    8   79 1    
    18    8   80 1    
    19    9   10 ar   
    20    9   14 ar   
    21   10   11 ar   
    22   10   81 1    
    23   11   12 ar   
    24   11   71 1    
    25   12   13 ar   
    26   12   82 1    
    27   13   14 ar   
    28   13   15 1    
    29   14   83 1    
    30   15   16 1    
    31   15   84 1    
    32   15   85 1    
    33   16   17 1    
    34   17   18 1    
    35   17   86 1    
    36   17   87 1    
    37   18   19 1    
    38   18   37 1    
    39   18   88 1    
    40   19   20 am   BACKBONE|DICT|INTERRES
    41   19   89 1    
    42   20   21 2    
    43   20   22 1    
    44   22   23 1    
    45   22   24 1    
    46   22   90 1    
    47   23   91 1    
    48   23   92 1    
    49   23   93 1    
    50   24   25 am   BACKBONE|DICT|INTERRES
    51   24   94 1    
    52   25   26 2    
    53   25   27 1    
    54   27   28 1    
    55   27   29 1    
    56   27   95 1    
    57   28   96 1    
    58   28   97 1    
    59   28   98 1    
    60   29   30 am   BACKBONE|DICT|INTERRES
    61   29   99 1    
    62   30   31 2    
    63   30   32 1    
    64   32   33 1    
    65   32   34 1    
    66   32  100 1    
    67   33  101 1    
    68   33  102 1    
    69   33  103 1    
    70   34   35 am   BACKBONE|DICT|INTERRES
    71   34  104 1    
    72   35   36 2    
    73   37   38 2    
    74   37   39 am   BACKBONE|DICT|INTERRES
    75   39   40 1    
    76   39  105 1    
    77   40   41 1    
    78   40   42 1    
    79   40  106 1    
    80   41  107 1    
    81   41  108 1    
    82   41  109 1    
    83   42   43 2    
    84   42   44 am   BACKBONE|DICT|INTERRES
    85   44   45 1    
    86   44  110 1    
    87   45   46 1    
    88   45   47 1    
    89   45  111 1    
    90   46  112 1    
    91   46  113 1    
    92   46  114 1    
    93   47   48 2    
    94   47   49 am   BACKBONE|DICT|INTERRES
    95   49   50 1    
    96   49  115 1    
    97   50   51 1    
    98   50   52 1    
    99   50  116 1    
   100   51  117 1    
   101   51  118 1    
   102   51  119 1    
   103   52   53 2    
   104   52   54 am   BACKBONE|DICT|INTERRES
   105   54   55 1    
   106   54  120 1    
   107   55   56 1    
   108   55   57 1    
   109   55  121 1    
   110   56  122 1    
   111   56  123 1    
   112   56  124 1    
   113   57   58 2    
   114   57   59 am   BACKBONE|DICT|INTERRES
   115   59   60 1    
   116   59  125 1    
   117   60   61 1    
   118   60   62 1    
   119   60  126 1    
   120   61  127 1    
   121   61  128 1    
   122   61  129 1    
   123   62   63 2    
   124   62   64 am   BACKBONE|DICT|INTERRES
   125   64   65 1    
   126   64  130 1    
   127   65   66 1    
   128   65   69 1    
   129   65  131 1    
   130   66   67 am   BACKBONE|DICT|INTERRES
   131   66   68 2    
   132   67  132 1    
   133   67  133 1    
   134   69   70 1    
   135   69  134 1    
   136   69  135 1    
   137   70   71 1    
   138   71  136 1    
   139   71  137 1    
@<TRIPOS>SUBSTRUCTURE
     1 UNK         1 GROUP             0       ****    0 ROOT    
