@<TRIPOS>MOLECULE
3R136
137   139    1
SMALL
USER_CHARGES


@<TRIPOS>ATOM
      1 CA         26.9458   22.0281    2.2176 C.3       0 UNK        -0.1979 
      2 C          27.3515   22.2910    0.7754 C.2       0 UNK         0.4864 
      3 O          26.6451   21.8800   -0.1464 O.2       0 UNK        -0.5359 
      4 N          28.4816   22.9799    0.5679 N.am      1 UNK        -0.4318 
      5 CA         28.9895   23.4006   -0.7419 C.3       1 UNK         0.0824 
      6 C6         30.4304   23.9747   -0.6735 C.3       12 UNK        -0.0944 
      7 S7         30.7145   25.1431    0.6995 S.3       12 UNK        -0.2672 
      8 C8         31.5151   24.0566    1.9258 C.3       12 UNK         0.0333 
      9 C9         31.3178   24.5974    3.3325 C.ar      12 UNK        -0.0807 
     10 C10        32.3850   25.1493    4.0447 C.ar      12 UNK        -0.0894 
     11 C11        32.1858   25.6882    5.3204 C.ar      12 UNK        -0.0804 
     12 C12        30.9024   25.6714    5.8795 C.ar      12 UNK        -0.0824 
     13 C13        29.8270   25.1036    5.1856 C.ar      12 UNK        -0.0762 
     14 C14        30.0532   24.5489    3.9225 C.ar      12 UNK        -0.0782 
     15 C15        28.4349   25.0871    5.8205 C.3       12 UNK         0.0230 
     16 S16        27.0495   25.2935    4.6389 S.3       12 UNK        -0.2608 
     17 C17        27.4612   26.8912    3.8606 C.3       12 UNK        -0.0989 
     18 CA         27.6113   26.7659    2.3176 C.3       5 UNK         0.0716 
     19 N          26.3599   26.4716    1.6079 N.am      5 UNK        -0.4135 
     20 C          25.2777   27.2632    1.5430 C.2       4 UNK         0.5031 
     21 O          25.1423   28.2958    2.2005 O.2       4 UNK        -0.5229 
     22 CA         24.1569   26.8756    0.5650 C.3       4 UNK         0.0329 
     23 CB         24.0042   27.9455   -0.5321 C.3       4 UNK        -0.2001 
     24 N          24.3676   25.5777   -0.0813 N.am      4 UNK        -0.4303 
     25 C          23.4221   24.6400   -0.2406 C.2       3 UNK         0.5044 
     26 O          22.2962   24.7185    0.2542 O.2       3 UNK        -0.5152 
     27 CA         23.7828   23.4047   -1.0954 C.3       3 UNK         0.0319 
     28 CB         22.5915   22.8994   -1.9371 C.3       3 UNK        -0.2001 
     29 N          24.9799   23.5870   -1.9287 N.am      3 UNK        -0.4354 
     30 C          25.1607   24.4722   -2.9252 C.2       2 UNK         0.4964 
     31 O          24.2658   25.1983   -3.3593 O.2       2 UNK        -0.5047 
     32 CA         26.5825   24.6030   -3.5170 C.3       2 UNK         0.0288 
     33 CB         26.9230   26.0688   -3.8568 C.3       2 UNK        -0.2113 
     34 N          27.6386   24.0058   -2.6851 N.am      2 UNK        -0.4145 
     35 C          27.9913   24.3504   -1.4367 C.2       1 UNK         0.5006 
     36 O          27.5134   25.3067   -0.8144 O.2       1 UNK        -0.5103 
     37 C          28.3115   27.9799    1.6730 C.2       5 UNK         0.5055 
     38 O          28.6428   28.9464    2.3597 O.2       5 UNK        -0.5220 
     39 N          28.5137   27.9130    0.3483 N.am      6 UNK        -0.4450 
     40 CA         29.0909   28.9869   -0.4704 C.3       6 UNK         0.0367 
     41 CB         29.0933   28.5555   -1.9446 C.3       6 UNK        -0.1929 
     42 C          30.4972   29.4504   -0.0440 C.2       6 UNK         0.5070 
     43 O          30.8335   30.6172   -0.2480 O.2       6 UNK        -0.5237 
     44 N          31.2871   28.5465    0.5491 N.am      7 UNK        -0.4739 
     45 CA         32.6342   28.8280    1.0482 C.3       7 UNK         0.0276 
     46 CB         33.4266   27.5136    1.1220 C.3       7 UNK        -0.1927 
     47 C          32.6654   29.5456    2.4102 C.2       7 UNK         0.5013 
     48 O          33.7481   29.9787    2.8072 O.2       7 UNK        -0.5193 
     49 N          31.5188   29.6702    3.1050 N.am      8 UNK        -0.4253 
     50 CA         31.4045   30.1756    4.4844 C.3       8 UNK         0.0242 
     51 CB         29.9364   30.1813    4.9327 C.3       8 UNK        -0.2000 
     52 C          32.0405   31.5500    4.7498 C.2       8 UNK         0.4948 
     53 O          32.4799   31.7945    5.8728 O.2       8 UNK        -0.5275 
     54 N          32.1567   32.3954    3.7175 N.am      9 UNK        -0.4246 
     55 CA         32.9026   33.6576    3.7538 C.3       9 UNK         0.0261 
     56 CB         32.7494   34.3680    2.3991 C.3       9 UNK        -0.1959 
     57 C          34.3970   33.5042    4.1145 C.2       9 UNK         0.5033 
     58 O          34.9925   34.4725    4.5899 O.2       9 UNK        -0.5390 
     59 N          34.9706   32.3121    3.8939 N.am      10 UNK        -0.4215 
     60 CA         36.3631   31.9761    4.1867 C.3       10 UNK         0.0240 
     61 CB         37.0061   31.4329    2.8973 C.3       10 UNK        -0.1982 
     62 C          36.5165   30.9602    5.3360 C.2       10 UNK         0.4970 
     63 O          37.6572   30.5996    5.6329 O.2       10 UNK        -0.4916 
     64 N          35.4200   30.4974    5.9573 N.am      11 UNK        -0.4279 
     65 CA         35.4579   29.4201    6.9670 C.3       11 UNK         0.1003 
     66 C          34.3839   29.4896    8.0883 C.2       11 UNK         0.5709 
     67 N          33.4245   30.4036    8.0656 N.am      11 UNK        -0.7358 
     68 O          34.4418   28.7068    9.0339 O.2       11 UNK        -0.4999 
     69 C69        35.5724   28.0076    6.3259 C.3       12 UNK        -0.0954 
     70 S70        34.1983   27.5979    5.1977 S.3       12 UNK        -0.2268 
     71 C71        33.3630   26.2593    6.1026 C.3       12 UNK         0.0203 
     72 H72        27.7627   22.2175    2.9129 H         1 UNK         0.0888 
     73 H73        26.1071   22.6671    2.4932 H         1 UNK         0.0888 
     74 H74        26.6378   20.9898    2.3377 H         1 UNK         0.0888 
     75 H75        29.0149   23.3195    1.3522 H         1 UNK         0.3017 
     76 H76        29.0456   22.4927   -1.3469 H         1 UNK         0.0873 
     77 H77        31.1415   23.1523   -0.5796 H         1 UNK         0.0745 
     78 H78        30.6961   24.4712   -1.6089 H         1 UNK         0.0745 
     79 H79        31.1009   23.0490    1.8714 H         1 UNK         0.0705 
     80 H80        32.5754   23.9677    1.6841 H         1 UNK         0.0705 
     81 H81        33.3733   25.1693    3.6060 H         1 UNK         0.1334 
     82 H82        30.7425   26.0903    6.8638 H         1 UNK         0.1417 
     83 H83        29.2340   24.0998    3.3831 H         1 UNK         0.1562 
     84 H84        28.3566   25.8721    6.5744 H         1 UNK         0.0748 
     85 H85        28.3051   24.1406    6.3465 H         1 UNK         0.0748 
     86 H86        28.3896   27.2548    4.3012 H         1 UNK         0.0940 
     87 H87        26.7042   27.6274    4.1322 H         1 UNK         0.0940 
     88 H88        28.2680   25.9201    2.1194 H         1 UNK         0.0703 
     89 H89        26.4048   25.6745    0.9888 H         1 UNK         0.3081 
     90 H90        23.2388   26.8560    1.1557 H         1 UNK         0.0719 
     91 H91        23.8143   28.9297   -0.1015 H         1 UNK         0.0809 
     92 H92        24.9036   28.0234   -1.1446 H         1 UNK         0.0809 
     93 H93        23.1688   27.7167   -1.1942 H         1 UNK         0.0809 
     94 H94        25.2568   25.4384   -0.5447 H         1 UNK         0.2990 
     95 H95        24.0327   22.6177   -0.3827 H         1 UNK         0.0690 
     96 H96        22.8660   22.0262   -2.5289 H         1 UNK         0.0788 
     97 H97        22.2211   23.6652   -2.6190 H         1 UNK         0.0788 
     98 H98        21.7576   22.6056   -1.2985 H         1 UNK         0.0788 
     99 H99        25.7739   23.0285   -1.6307 H         1 UNK         0.2993 
    100 H100       26.5739   24.0380   -4.4504 H         1 UNK         0.0949 
    101 H101       26.7771   26.7179   -2.9942 H         1 UNK         0.0767 
    102 H102       27.9541   26.1761   -4.1939 H         1 UNK         0.0767 
    103 H103       26.2802   26.4447   -4.6537 H         1 UNK         0.0767 
    104 H104       28.0812   23.1912   -3.0890 H         1 UNK         0.3013 
    105 H105       28.2196   27.0718   -0.1397 H         1 UNK         0.3121 
    106 H106       28.4336   29.8534   -0.3727 H         1 UNK         0.0774 
    107 H107       29.6042   27.6024   -2.0877 H         1 UNK         0.0815 
    108 H108       28.0770   28.4583   -2.3220 H         1 UNK         0.0815 
    109 H109       29.5944   29.2942   -2.5720 H         1 UNK         0.0815 
    110 H110       30.9389   27.6045    0.6742 H         1 UNK         0.2987 
    111 H111       33.1390   29.4824    0.3338 H         1 UNK         0.0949 
    112 H112       33.4575   27.0094    0.1561 H         1 UNK         0.0806 
    113 H113       34.4581   27.6938    1.4283 H         1 UNK         0.0806 
    114 H114       32.9903   26.8280    1.8467 H         1 UNK         0.0806 
    115 H115       30.6611   29.3236    2.6871 H         1 UNK         0.3010 
    116 H116       31.9356   29.4648    5.1191 H         1 UNK         0.0829 
    117 H117       29.3172   30.7979    4.2802 H         1 UNK         0.0813 
    118 H118       29.8348   30.5717    5.9464 H         1 UNK         0.0813 
    119 H119       29.5240   29.1738    4.9388 H         1 UNK         0.0813 
    120 H120       31.7824   32.1088    2.8241 H         1 UNK         0.3038 
    121 H121       32.4481   34.2837    4.5244 H         1 UNK         0.0769 
    122 H122       31.7026   34.5709    2.1720 H         1 UNK         0.0811 
    123 H123       33.1625   33.7733    1.5832 H         1 UNK         0.0811 
    124 H124       33.2701   35.3268    2.3997 H         1 UNK         0.0811 
    125 H125       34.4137   31.5575    3.4924 H         1 UNK         0.3204 
    126 H126       36.9144   32.8696    4.4861 H         1 UNK         0.0748 
    127 H127       36.5254   30.5108    2.5669 H         1 UNK         0.0771 
    128 H128       36.9360   32.1564    2.0850 H         1 UNK         0.0771 
    129 H129       38.0650   31.2156    3.0436 H         1 UNK         0.0771 
    130 H130       34.5070   30.8466    5.7012 H         1 UNK         0.2980 
    131 H131       36.3783   29.5662    7.5356 H         1 UNK         0.0545 
    132 H132       33.2752   31.0284    7.2777 H         1 UNK         0.3459 
    133 H133       32.7669   30.4199    8.8281 H         1 UNK         0.3459 
    134 H134       35.6646   27.2381    7.0943 H         1 UNK         0.0616 
    135 H135       36.4951   27.9452    5.7475 H         1 UNK         0.0616 
    136 H136       33.0388   26.6395    7.0726 H         1 UNK         0.0634 
    137 H137       34.0768   25.4586    6.3004 H         1 UNK         0.0634 
@<TRIPOS>BOND
     1    1    2 1    
     2    1   72 1    
     3    1   73 1    
     4    1   74 1    
     5    2    3 2    
     6    2    4 am   BACKBONE|DICT|INTERRES
     7    4    5 1    
     8    4   75 1    
     9    5    6 1    
    10    5   35 1    
    11    5   76 1    
    12    6    7 1    
    13    6   77 1    
    14    6   78 1    
    15    7    8 1    
    16    8    9 1    
    17    8   79 1    
    18    8   80 1    
    19    9   10 ar   
    20    9   14 ar   
    21   10   11 ar   
    22   10   81 1    
    23   11   12 ar   
    24   11   71 1    
    25   12   13 ar   
    26   12   82 1    
    27   13   14 ar   
    28   13   15 1    
    29   14   83 1    
    30   15   16 1    
    31   15   84 1    
    32   15   85 1    
    33   16   17 1    
    34   17   18 1    
    35   17   86 1    
    36   17   87 1    
    37   18   19 1    
    38   18   37 1    
    39   18   88 1    
    40   19   20 am   BACKBONE|DICT|INTERRES
    41   19   89 1    
    42   20   21 2    
    43   20   22 1    
    44   22   23 1    
    45   22   24 1    
    46   22   90 1    
    47   23   91 1    
    48   23   92 1    
    49   23   93 1    
    50   24   25 am   BACKBONE|DICT|INTERRES
    51   24   94 1    
    52   25   26 2    
    53   25   27 1    
    54   27   28 1    
    55   27   29 1    
    56   27   95 1    
    57   28   96 1    
    58   28   97 1    
    59   28   98 1    
    60   29   30 am   BACKBONE|DICT|INTERRES
    61   29   99 1    
    62   30   31 2    
    63   30   32 1    
    64   32   33 1    
    65   32   34 1    
    66   32  100 1    
    67   33  101 1    
    68   33  102 1    
    69   33  103 1    
    70   34   35 am   BACKBONE|DICT|INTERRES
    71   34  104 1    
    72   35   36 2    
    73   37   38 2    
    74   37   39 am   BACKBONE|DICT|INTERRES
    75   39   40 1    
    76   39  105 1    
    77   40   41 1    
    78   40   42 1    
    79   40  106 1    
    80   41  107 1    
    81   41  108 1    
    82   41  109 1    
    83   42   43 2    
    84   42   44 am   BACKBONE|DICT|INTERRES
    85   44   45 1    
    86   44  110 1    
    87   45   46 1    
    88   45   47 1    
    89   45  111 1    
    90   46  112 1    
    91   46  113 1    
    92   46  114 1    
    93   47   48 2    
    94   47   49 am   BACKBONE|DICT|INTERRES
    95   49   50 1    
    96   49  115 1    
    97   50   51 1    
    98   50   52 1    
    99   50  116 1    
   100   51  117 1    
   101   51  118 1    
   102   51  119 1    
   103   52   53 2    
   104   52   54 am   BACKBONE|DICT|INTERRES
   105   54   55 1    
   106   54  120 1    
   107   55   56 1    
   108   55   57 1    
   109   55  121 1    
   110   56  122 1    
   111   56  123 1    
   112   56  124 1    
   113   57   58 2    
   114   57   59 am   BACKBONE|DICT|INTERRES
   115   59   60 1    
   116   59  125 1    
   117   60   61 1    
   118   60   62 1    
   119   60  126 1    
   120   61  127 1    
   121   61  128 1    
   122   61  129 1    
   123   62   63 2    
   124   62   64 am   BACKBONE|DICT|INTERRES
   125   64   65 1    
   126   64  130 1    
   127   65   66 1    
   128   65   69 1    
   129   65  131 1    
   130   66   67 am   BACKBONE|DICT|INTERRES
   131   66   68 2    
   132   67  132 1    
   133   67  133 1    
   134   69   70 1    
   135   69  134 1    
   136   69  135 1    
   137   70   71 1    
   138   71  136 1    
   139   71  137 1    
@<TRIPOS>SUBSTRUCTURE
     1 UNK         1 GROUP             0       ****    0 ROOT    
