@<TRIPOS>MOLECULE
3R136
137   139    1
SMALL
USER_CHARGES


@<TRIPOS>ATOM
      1 CA         31.0748   29.5065   -4.6606 C.3       0 UNK        -0.1979 
      2 C          30.3473   29.2231   -3.3549 C.2       0 UNK         0.4864 
      3 O          29.8491   30.1540   -2.7212 O.2       0 UNK        -0.5359 
      4 N          30.3027   27.9492   -2.9433 N.am      1 UNK        -0.4318 
      5 CA         29.6235   27.4768   -1.7308 C.3       1 UNK         0.0824 
      6 C6         30.0345   26.0284   -1.3546 C.3       12 UNK        -0.0944 
      7 S7         31.8397   25.7911   -1.2596 S.3       12 UNK        -0.2672 
      8 C8         31.9544   24.2639   -0.2617 C.3       12 UNK         0.0333 
      9 C9         31.9544   24.4603    1.2567 C.ar      12 UNK        -0.0807 
     10 C10        32.3281   25.6709    1.8556 C.ar      12 UNK        -0.0894 
     11 C11        32.3883   25.7952    3.2462 C.ar      12 UNK        -0.0804 
     12 C12        32.0650   24.6967    4.0469 C.ar      12 UNK        -0.0824 
     13 C13        31.6947   23.4785    3.4695 C.ar      12 UNK        -0.0762 
     14 C14        31.6379   23.3698    2.0761 C.ar      12 UNK        -0.0782 
     15 C15        31.3923   22.2726    4.3525 C.3       12 UNK         0.0230 
     16 S16        29.6048   22.0060    4.5942 S.3       12 UNK        -0.2608 
     17 C17        29.1109   23.5635    5.4034 C.3       12 UNK        -0.0989 
     18 CA         28.4340   24.5132    4.3841 C.3       5 UNK         0.0716 
     19 N          27.0786   24.0620    4.0492 N.am      5 UNK        -0.4135 
     20 C          26.3719   24.4695    2.9887 C.2       4 UNK         0.5031 
     21 O          26.8147   25.2444    2.1368 O.2       4 UNK        -0.5229 
     22 CA         24.9334   23.9388    2.8659 C.3       4 UNK         0.0329 
     23 CB         24.0799   24.3231    4.0890 C.3       4 UNK        -0.2001 
     24 N          24.3348   24.5312    1.6745 N.am      4 UNK        -0.4303 
     25 C          23.7313   23.8885    0.6701 C.2       3 UNK         0.5044 
     26 O          23.4583   22.6874    0.6874 O.2       3 UNK        -0.5152 
     27 CA         23.3704   24.7307   -0.5737 C.3       3 UNK         0.0319 
     28 CB         21.8528   24.9695   -0.6395 C.3       3 UNK        -0.2001 
     29 N          24.0604   26.0281   -0.6312 N.am      3 UNK        -0.4354 
     30 C          25.3765   26.1866   -0.8368 C.2       2 UNK         0.4964 
     31 O          26.1328   25.2482   -1.0994 O.2       2 UNK        -0.5047 
     32 CA         25.9187   27.6262   -0.6924 C.3       2 UNK         0.0288 
     33 CB         25.4874   28.2722    0.6393 C.3       2 UNK        -0.2113 
     34 N          27.3797   27.6754   -0.7687 N.am      2 UNK        -0.4145 
     35 C          28.0907   27.5584   -1.8954 C.2       1 UNK         0.5006 
     36 O          27.5829   27.4784   -3.0193 O.2       1 UNK        -0.5103 
     37 C          28.4303   25.9833    4.8542 C.2       5 UNK         0.5055 
     38 O          28.4755   26.2550    6.0554 O.2       5 UNK        -0.5220 
     39 N          28.3562   26.8939    3.8822 N.am      6 UNK        -0.4450 
     40 CA         28.3732   28.3430    4.0077 C.3       6 UNK         0.0367 
     41 CB         26.9874   28.8513    4.4486 C.3       6 UNK        -0.1929 
     42 C          28.7791   28.9210    2.6450 C.2       6 UNK         0.5070 
     43 O          28.7797   28.1937    1.6457 O.2       6 UNK        -0.5237 
     44 N          29.1070   30.2201    2.6360 N.am      7 UNK        -0.4739 
     45 CA         29.6839   30.9777    1.5152 C.3       7 UNK         0.0276 
     46 CB         28.7108   31.0417    0.3191 C.3       7 UNK        -0.1927 
     47 C          31.0952   30.4750    1.1422 C.2       7 UNK         0.5013 
     48 O          31.6998   29.7349    1.9215 O.2       7 UNK        -0.5193 
     49 N          31.6405   30.9425    0.0092 N.am      8 UNK        -0.4253 
     50 CA         33.0327   30.7536   -0.4274 C.3       8 UNK         0.0242 
     51 CB         33.2941   29.2855   -0.8398 C.3       8 UNK        -0.2000 
     52 C          34.0206   31.2842    0.6326 C.2       8 UNK         0.4948 
     53 O          34.1601   32.5002    0.7684 O.2       8 UNK        -0.5275 
     54 N          34.6454   30.3721    1.3895 N.am      9 UNK        -0.4246 
     55 CA         35.5090   30.6635    2.5371 C.3       9 UNK         0.0261 
     56 CB         36.4361   29.4581    2.7701 C.3       9 UNK        -0.1959 
     57 C          34.7382   31.0164    3.8278 C.2       9 UNK         0.5033 
     58 O          35.3796   31.3311    4.8317 O.2       9 UNK        -0.5390 
     59 N          33.3990   30.9273    3.8089 N.am      10 UNK        -0.4215 
     60 CA         32.4289   31.1705    4.8876 C.3       10 UNK         0.0240 
     61 CB         32.5646   32.5794    5.4971 C.3       10 UNK        -0.1982 
     62 C          32.4239   30.0769    5.9666 C.2       10 UNK         0.4970 
     63 O          31.3462   29.6141    6.3396 O.2       10 UNK        -0.4916 
     64 N          33.6164   29.6603    6.4072 N.am      11 UNK        -0.4279 
     65 CA         33.8782   28.5064    7.2854 C.3       11 UNK         0.1003 
     66 C          33.3460   28.6500    8.7440 C.2       11 UNK         0.5709 
     67 N          33.0137   29.8480    9.2103 N.am      11 UNK        -0.7358 
     68 O          33.2659   27.6693    9.4805 O.2       11 UNK        -0.4999 
     69 C69        33.4873   27.1483    6.6282 C.3       12 UNK        -0.0954 
     70 S70        34.2478   26.9259    4.9809 S.3       12 UNK        -0.2268 
     71 C71        32.8119   27.1168    3.8724 C.3       12 UNK         0.0203 
     72 H72        31.9011   30.1952   -4.4864 H         1 UNK         0.0888 
     73 H73        31.4786   28.5985   -5.1082 H         1 UNK         0.0888 
     74 H74        30.3934   29.9643   -5.3771 H         1 UNK         0.0888 
     75 H75        30.7264   27.2270   -3.5070 H         1 UNK         0.3017 
     76 H76        29.9173   28.1368   -0.9113 H         1 UNK         0.0873 
     77 H77        29.6010   25.7583   -0.3888 H         1 UNK         0.0745 
     78 H78        29.6405   25.3125   -2.0791 H         1 UNK         0.0745 
     79 H79        31.1450   23.5923   -0.5527 H         1 UNK         0.0705 
     80 H80        32.8822   23.7581   -0.5313 H         1 UNK         0.0705 
     81 H81        32.5916   26.5219    1.2446 H         1 UNK         0.1334 
     82 H82        32.1234   24.7889    5.1226 H         1 UNK         0.1417 
     83 H83        31.3634   22.4236    1.6292 H         1 UNK         0.1562 
     84 H84        31.8737   22.3808    5.3259 H         1 UNK         0.0748 
     85 H85        31.8226   21.3762    3.9035 H         1 UNK         0.0748 
     86 H86        28.4387   23.3400    6.2338 H         1 UNK         0.0940 
     87 H87        29.9904   24.0214    5.8581 H         1 UNK         0.0940 
     88 H88        29.0264   24.4918    3.4660 H         1 UNK         0.0703 
     89 H89        26.6494   23.4281    4.7064 H         1 UNK         0.3081 
     90 H90        24.9794   22.8518    2.7725 H         1 UNK         0.0719 
     91 H91        23.0439   24.0093    3.9594 H         1 UNK         0.0809 
     92 H92        24.4452   23.8458    4.9987 H         1 UNK         0.0809 
     93 H93        24.0818   25.4007    4.2596 H         1 UNK         0.0809 
     94 H94        24.6059   25.4907    1.5112 H         1 UNK         0.2990 
     95 H95        23.6638   24.1519   -1.4520 H         1 UNK         0.0690 
     96 H96        21.5724   25.4978   -1.5510 H         1 UNK         0.0788 
     97 H97        21.4982   25.5524    0.2115 H         1 UNK         0.0788 
     98 H98        21.3082   24.0241   -0.6357 H         1 UNK         0.0788 
     99 H99        23.4977   26.8443   -0.4369 H         1 UNK         0.2993 
    100 H100       25.5092   28.2169   -1.5146 H         1 UNK         0.0949 
    101 H101       25.8110   27.6778    1.4940 H         1 UNK         0.0767 
    102 H102       25.9172   29.2682    0.7508 H         1 UNK         0.0767 
    103 H103       24.4053   28.3866    0.7054 H         1 UNK         0.0767 
    104 H104       27.8757   27.7270    0.1207 H         1 UNK         0.3013 
    105 H105       28.2797   26.5737    2.9193 H         1 UNK         0.3121 
    106 H106       29.1287   28.6261    4.7441 H         1 UNK         0.0774 
    107 H107       26.9748   29.9378    4.5400 H         1 UNK         0.0815 
    108 H108       26.2117   28.5740    3.7344 H         1 UNK         0.0815 
    109 H109       26.7060   28.4450    5.4201 H         1 UNK         0.0815 
    110 H110       29.0699   30.7172    3.5145 H         1 UNK         0.2987 
    111 H111       29.8183   31.9957    1.8841 H         1 UNK         0.0949 
    112 H112       28.6429   30.0890   -0.2018 H         1 UNK         0.0806 
    113 H113       27.7061   31.3169    0.6397 H         1 UNK         0.0806 
    114 H114       29.0255   31.7859   -0.4128 H         1 UNK         0.0806 
    115 H115       31.0786   31.5426   -0.5789 H         1 UNK         0.3010 
    116 H116       33.1715   31.3737   -1.3144 H         1 UNK         0.0829 
    117 H117       32.6806   29.0055   -1.6932 H         1 UNK         0.0813 
    118 H118       34.3324   29.1377   -1.1398 H         1 UNK         0.0813 
    119 H119       33.0742   28.5767   -0.0416 H         1 UNK         0.0813 
    120 H120       34.4366   29.3991    1.2175 H         1 UNK         0.3038 
    121 H121       36.1306   31.5274    2.2926 H         1 UNK         0.0769 
    122 H122       37.1183   29.6400    3.6018 H         1 UNK         0.0811 
    123 H123       37.0490   29.2539    1.8920 H         1 UNK         0.0811 
    124 H124       35.8728   28.5543    3.0034 H         1 UNK         0.0811 
    125 H125       32.9723   30.5555    2.9615 H         1 UNK         0.3204 
    126 H126       31.4526   31.1252    4.4033 H         1 UNK         0.0748 
    127 H127       33.5005   32.7057    6.0416 H         1 UNK         0.0771 
    128 H128       32.5186   33.3492    4.7267 H         1 UNK         0.0771 
    129 H129       31.7545   32.7757    6.2006 H         1 UNK         0.0771 
    130 H130       34.4348   30.1375    6.0407 H         1 UNK         0.2980 
    131 H131       34.9621   28.4938    7.4034 H         1 UNK         0.0545 
    132 H132       32.6819   29.9352   10.1578 H         1 UNK         0.3459 
    133 H133       33.0829   30.6611    8.6201 H         1 UNK         0.3459 
    134 H134       33.8267   26.3176    7.2489 H         1 UNK         0.0616 
    135 H135       32.4030   27.0465    6.5632 H         1 UNK         0.0616 
    136 H136       33.0924   27.8309    3.0980 H         1 UNK         0.0634 
    137 H137       31.9612   27.5570    4.3929 H         1 UNK         0.0634 
@<TRIPOS>BOND
     1    1    2 1    
     2    1   72 1    
     3    1   73 1    
     4    1   74 1    
     5    2    3 2    
     6    2    4 am   BACKBONE|DICT|INTERRES
     7    4    5 1    
     8    4   75 1    
     9    5    6 1    
    10    5   35 1    
    11    5   76 1    
    12    6    7 1    
    13    6   77 1    
    14    6   78 1    
    15    7    8 1    
    16    8    9 1    
    17    8   79 1    
    18    8   80 1    
    19    9   10 ar   
    20    9   14 ar   
    21   10   11 ar   
    22   10   81 1    
    23   11   12 ar   
    24   11   71 1    
    25   12   13 ar   
    26   12   82 1    
    27   13   14 ar   
    28   13   15 1    
    29   14   83 1    
    30   15   16 1    
    31   15   84 1    
    32   15   85 1    
    33   16   17 1    
    34   17   18 1    
    35   17   86 1    
    36   17   87 1    
    37   18   19 1    
    38   18   37 1    
    39   18   88 1    
    40   19   20 am   BACKBONE|DICT|INTERRES
    41   19   89 1    
    42   20   21 2    
    43   20   22 1    
    44   22   23 1    
    45   22   24 1    
    46   22   90 1    
    47   23   91 1    
    48   23   92 1    
    49   23   93 1    
    50   24   25 am   BACKBONE|DICT|INTERRES
    51   24   94 1    
    52   25   26 2    
    53   25   27 1    
    54   27   28 1    
    55   27   29 1    
    56   27   95 1    
    57   28   96 1    
    58   28   97 1    
    59   28   98 1    
    60   29   30 am   BACKBONE|DICT|INTERRES
    61   29   99 1    
    62   30   31 2    
    63   30   32 1    
    64   32   33 1    
    65   32   34 1    
    66   32  100 1    
    67   33  101 1    
    68   33  102 1    
    69   33  103 1    
    70   34   35 am   BACKBONE|DICT|INTERRES
    71   34  104 1    
    72   35   36 2    
    73   37   38 2    
    74   37   39 am   BACKBONE|DICT|INTERRES
    75   39   40 1    
    76   39  105 1    
    77   40   41 1    
    78   40   42 1    
    79   40  106 1    
    80   41  107 1    
    81   41  108 1    
    82   41  109 1    
    83   42   43 2    
    84   42   44 am   BACKBONE|DICT|INTERRES
    85   44   45 1    
    86   44  110 1    
    87   45   46 1    
    88   45   47 1    
    89   45  111 1    
    90   46  112 1    
    91   46  113 1    
    92   46  114 1    
    93   47   48 2    
    94   47   49 am   BACKBONE|DICT|INTERRES
    95   49   50 1    
    96   49  115 1    
    97   50   51 1    
    98   50   52 1    
    99   50  116 1    
   100   51  117 1    
   101   51  118 1    
   102   51  119 1    
   103   52   53 2    
   104   52   54 am   BACKBONE|DICT|INTERRES
   105   54   55 1    
   106   54  120 1    
   107   55   56 1    
   108   55   57 1    
   109   55  121 1    
   110   56  122 1    
   111   56  123 1    
   112   56  124 1    
   113   57   58 2    
   114   57   59 am   BACKBONE|DICT|INTERRES
   115   59   60 1    
   116   59  125 1    
   117   60   61 1    
   118   60   62 1    
   119   60  126 1    
   120   61  127 1    
   121   61  128 1    
   122   61  129 1    
   123   62   63 2    
   124   62   64 am   BACKBONE|DICT|INTERRES
   125   64   65 1    
   126   64  130 1    
   127   65   66 1    
   128   65   69 1    
   129   65  131 1    
   130   66   67 am   BACKBONE|DICT|INTERRES
   131   66   68 2    
   132   67  132 1    
   133   67  133 1    
   134   69   70 1    
   135   69  134 1    
   136   69  135 1    
   137   70   71 1    
   138   71  136 1    
   139   71  137 1    
@<TRIPOS>SUBSTRUCTURE
     1 UNK         1 GROUP             0       ****    0 ROOT    
