@<TRIPOS>MOLECULE
3R136
137   139    1
SMALL
USER_CHARGES


@<TRIPOS>ATOM
      1 CA         31.6393   25.6542   -0.4084 C.3       0 UNK        -0.1979 
      2 C          30.3877   24.8634   -0.0612 C.2       0 UNK         0.4864 
      3 O          29.2789   25.3529   -0.2756 O.2       0 UNK        -0.5359 
      4 N          30.5586   23.6375    0.4555 N.am      1 UNK        -0.4318 
      5 CA         29.4870   22.7530    0.9419 C.3       1 UNK         0.0824 
      6 C6         30.0385   21.4971    1.6673 C.3       12 UNK        -0.0944 
      7 S7         31.3533   21.8273    2.8867 S.3       12 UNK        -0.2672 
      8 C8         30.3981   22.3490    4.3535 C.3       12 UNK         0.0333 
      9 C9         30.0206   23.8311    4.3768 C.ar      12 UNK        -0.0807 
     10 C10        30.8412   24.8092    3.8007 C.ar      12 UNK        -0.0894 
     11 C11        30.5174   26.1681    3.8919 C.ar      12 UNK        -0.0804 
     12 C12        29.3651   26.5446    4.5836 C.ar      12 UNK        -0.0824 
     13 C13        28.5186   25.5834    5.1414 C.ar      12 UNK        -0.0762 
     14 C14        28.8535   24.2296    5.0368 C.ar      12 UNK        -0.0782 
     15 C15        27.2484   26.0077    5.8653 C.3       12 UNK         0.0230 
     16 S16        25.8589   26.2543    4.7112 S.3       12 UNK        -0.2608 
     17 C17        26.2579   27.8783    3.9750 C.3       12 UNK        -0.0989 
     18 CA         26.7773   27.7611    2.5129 C.3       5 UNK         0.0716 
     19 N          25.7933   27.1564    1.6047 N.am      5 UNK        -0.4135 
     20 C          24.6076   27.6556    1.2268 C.2       4 UNK         0.5031 
     21 O          24.1701   28.7439    1.6046 O.2       4 UNK        -0.5229 
     22 CA         23.7968   26.8034    0.2243 C.3       4 UNK         0.0329 
     23 CB         22.4670   27.4681   -0.1794 C.3       4 UNK        -0.2001 
     24 N          24.5592   26.4928   -0.9921 N.am      4 UNK        -0.4303 
     25 C          25.5574   25.6036   -1.0689 C.2       3 UNK         0.5044 
     26 O          25.9246   24.9235   -0.1072 O.2       3 UNK        -0.5152 
     27 CA         26.2914   25.5072   -2.4154 C.3       3 UNK         0.0319 
     28 CB         27.0746   26.7997   -2.7049 C.3       3 UNK        -0.2001 
     29 N          27.2388   24.3960   -2.3772 N.am      3 UNK        -0.4354 
     30 C          27.0116   23.1728   -2.8734 C.2       2 UNK         0.4964 
     31 O          26.0143   22.8750   -3.5325 O.2       2 UNK        -0.5047 
     32 CA         28.0725   22.0903   -2.5974 C.3       2 UNK         0.0288 
     33 CB         28.9816   21.9028   -3.8234 C.3       2 UNK        -0.2113 
     34 N          28.9043   22.3798   -1.4269 N.am      2 UNK        -0.4145 
     35 C          28.4896   22.3090   -0.1526 C.2       1 UNK         0.5006 
     36 O          27.3783   21.8918    0.1776 O.2       1 UNK        -0.5103 
     37 C          27.3459   29.0984    1.9769 C.2       5 UNK         0.5055 
     38 O          27.7656   29.9431    2.7689 O.2       5 UNK        -0.5220 
     39 N          27.3542   29.2717    0.6454 N.am      6 UNK        -0.4450 
     40 CA         27.6071   30.5379   -0.0535 C.3       6 UNK         0.0367 
     41 CB         27.3936   30.3353   -1.5621 C.3       6 UNK        -0.1929 
     42 C          28.9792   31.1820    0.2095 C.2       6 UNK         0.5070 
     43 O          29.0727   32.4097    0.2075 O.2       6 UNK        -0.5237 
     44 N          30.0132   30.3595    0.4342 N.am      7 UNK        -0.4739 
     45 CA         31.3681   30.8255    0.7553 C.3       7 UNK         0.0276 
     46 CB         32.3843   29.7368    0.3779 C.3       7 UNK        -0.1927 
     47 C          31.5308   31.2675    2.2244 C.2       7 UNK         0.5013 
     48 O          32.5115   31.9461    2.5352 O.2       7 UNK        -0.5193 
     49 N          30.5688   30.8979    3.0868 N.am      8 UNK        -0.4253 
     50 CA         30.4190   31.2817    4.4941 C.3       8 UNK         0.0242 
     51 CB         29.7649   32.6796    4.5715 C.3       8 UNK        -0.2000 
     52 C          31.7206   31.1478    5.3103 C.2       8 UNK         0.4948 
     53 O          32.2288   30.0362    5.4614 O.2       8 UNK        -0.5275 
     54 N          32.2452   32.2791    5.8005 N.am      9 UNK        -0.4246 
     55 CA         33.4426   32.3900    6.6373 C.3       9 UNK         0.0261 
     56 CB         33.5745   33.8443    7.1210 C.3       9 UNK        -0.1959 
     57 C          34.7553   31.9190    5.9818 C.2       9 UNK         0.5033 
     58 O          35.7365   31.7355    6.7041 O.2       9 UNK        -0.5390 
     59 N          34.7756   31.7290    4.6532 N.am      10 UNK        -0.4215 
     60 CA         35.9206   31.1599    3.9372 C.3       10 UNK         0.0240 
     61 CB         35.7816   31.4363    2.4328 C.3       10 UNK        -0.1982 
     62 C          36.1044   29.6522    4.1948 C.2       10 UNK         0.4970 
     63 O          37.2265   29.1628    4.0556 O.2       10 UNK        -0.4916 
     64 N          35.0250   28.9441    4.5560 N.am      11 UNK        -0.4279 
     65 CA         35.0619   27.5229    4.9253 C.3       11 UNK         0.1003 
     66 C          35.6063   27.3198    6.3639 C.2       11 UNK         0.5709 
     67 N          36.3572   26.2517    6.5976 N.am      11 UNK        -0.7358 
     68 O          35.3241   28.0940    7.2766 O.2       11 UNK        -0.4999 
     69 C69        33.6786   26.8479    4.7581 C.3       12 UNK        -0.0954 
     70 S70        33.1234   26.8564    3.0219 S.3       12 UNK        -0.2268 
     71 C71        31.3549   27.2539    3.2199 C.3       12 UNK         0.0203 
     72 H72        31.7778   25.6831   -1.4886 H         1 UNK         0.0888 
     73 H73        31.5472   26.6785   -0.0506 H         1 UNK         0.0888 
     74 H74        32.5316   25.2203    0.0428 H         1 UNK         0.0888 
     75 H75        31.4952   23.2921    0.6117 H         1 UNK         0.3017 
     76 H76        28.9105   23.3338    1.6654 H         1 UNK         0.0873 
     77 H77        30.4574   20.7976    0.9408 H         1 UNK         0.0745 
     78 H78        29.2293   20.9582    2.1644 H         1 UNK         0.0745 
     79 H79        29.5083   21.7239    4.4416 H         1 UNK         0.0705 
     80 H80        31.0020   22.1458    5.2386 H         1 UNK         0.0705 
     81 H81        31.7388   24.5106    3.2803 H         1 UNK         0.1334 
     82 H82        29.1167   27.5930    4.6679 H         1 UNK         0.1417 
     83 H83        28.2086   23.4849    5.4839 H         1 UNK         0.1562 
     84 H84        27.4234   26.9173    6.4418 H         1 UNK         0.0748 
     85 H85        26.9634   25.2450    6.5917 H         1 UNK         0.0748 
     86 H86        26.9787   28.3860    4.6165 H         1 UNK         0.0940 
     87 H87        25.3611   28.4989    4.0105 H         1 UNK         0.0940 
     88 H88        27.6248   27.0753    2.5112 H         1 UNK         0.0703 
     89 H89        26.0488   26.2519    1.2128 H         1 UNK         0.3081 
     90 H90        23.5549   25.8658    0.7300 H         1 UNK         0.0719 
     91 H91        21.8846   26.8239   -0.8384 H         1 UNK         0.0809 
     92 H92        22.6285   28.4170   -0.6927 H         1 UNK         0.0809 
     93 H93        21.8498   27.6721    0.6968 H         1 UNK         0.0809 
     94 H94        24.3265   27.0313   -1.8145 H         1 UNK         0.2990 
     95 H95        25.5521   25.3554   -3.2046 H         1 UNK         0.0690 
     96 H96        27.6367   26.7189   -3.6355 H         1 UNK         0.0788 
     97 H97        27.7842   27.0292   -1.9088 H         1 UNK         0.0788 
     98 H98        26.4061   27.6544   -2.8103 H         1 UNK         0.0788 
     99 H99        28.0328   24.5318   -1.7599 H         1 UNK         0.2993 
    100 H100       27.5413   21.1532   -2.4162 H         1 UNK         0.0949 
    101 H101       29.6924   21.0904   -3.6704 H         1 UNK         0.0767 
    102 H102       28.3951   21.6550   -4.7095 H         1 UNK         0.0767 
    103 H103       29.5469   22.8079   -4.0496 H         1 UNK         0.0767 
    104 H104       29.8395   22.7168   -1.6026 H         1 UNK         0.3013 
    105 H105       27.0184   28.5085    0.0781 H         1 UNK         0.3121 
    106 H106       26.8545   31.2463    0.2994 H         1 UNK         0.0774 
    107 H107       27.5367   31.2708   -2.1049 H         1 UNK         0.0815 
    108 H108       28.0958   29.6107   -1.9758 H         1 UNK         0.0815 
    109 H109       26.3819   29.9922   -1.7788 H         1 UNK         0.0815 
    110 H110       29.8550   29.3628    0.4044 H         1 UNK         0.2987 
    111 H111       31.5846   31.7016    0.1393 H         1 UNK         0.0949 
    112 H112       32.2884   28.8542    1.0052 H         1 UNK         0.0806 
    113 H113       32.2683   29.4263   -0.6606 H         1 UNK         0.0806 
    114 H114       33.4047   30.1023    0.4875 H         1 UNK         0.0806 
    115 H115       29.7825   30.3781    2.7133 H         1 UNK         0.3010 
    116 H116       29.7190   30.5678    4.9309 H         1 UNK         0.0829 
    117 H117       28.7978   32.6792    4.0676 H         1 UNK         0.0813 
    118 H118       29.5807   32.9795    5.6042 H         1 UNK         0.0813 
    119 H119       30.3768   33.4479    4.0969 H         1 UNK         0.0813 
    120 H120       31.7689   33.1437    5.5879 H         1 UNK         0.3038 
    121 H121       33.2846   31.7535    7.5105 H         1 UNK         0.0769 
    122 H122       34.4333   33.9609    7.7837 H         1 UNK         0.0811 
    123 H123       32.6938   34.1598    7.6808 H         1 UNK         0.0811 
    124 H124       33.7108   34.5351    6.2879 H         1 UNK         0.0811 
    125 H125       33.9329   31.8986    4.1122 H         1 UNK         0.3204 
    126 H126       36.8239   31.6645    4.2870 H         1 UNK         0.0748 
    127 H127       36.6688   31.1043    1.8918 H         1 UNK         0.0771 
    128 H128       34.9278   30.9102    2.0090 H         1 UNK         0.0771 
    129 H129       35.6560   32.5003    2.2311 H         1 UNK         0.0771 
    130 H130       34.1413   29.4161    4.7082 H         1 UNK         0.2980 
    131 H131       35.7505   27.0213    4.2418 H         1 UNK         0.0545 
    132 H132       36.5851   25.6025    5.8607 H         1 UNK         0.3459 
    133 H133       36.7076   26.0944    7.5296 H         1 UNK         0.3459 
    134 H134       32.9357   27.3400    5.3887 H         1 UNK         0.0616 
    135 H135       33.7141   25.8064    5.0827 H         1 UNK         0.0616 
    136 H136       31.2736   28.1899    3.7725 H         1 UNK         0.0634 
    137 H137       30.9254   27.4383    2.2358 H         1 UNK         0.0634 
@<TRIPOS>BOND
     1    1    2 1    
     2    1   72 1    
     3    1   73 1    
     4    1   74 1    
     5    2    3 2    
     6    2    4 am   BACKBONE|DICT|INTERRES
     7    4    5 1    
     8    4   75 1    
     9    5    6 1    
    10    5   35 1    
    11    5   76 1    
    12    6    7 1    
    13    6   77 1    
    14    6   78 1    
    15    7    8 1    
    16    8    9 1    
    17    8   79 1    
    18    8   80 1    
    19    9   10 ar   
    20    9   14 ar   
    21   10   11 ar   
    22   10   81 1    
    23   11   12 ar   
    24   11   71 1    
    25   12   13 ar   
    26   12   82 1    
    27   13   14 ar   
    28   13   15 1    
    29   14   83 1    
    30   15   16 1    
    31   15   84 1    
    32   15   85 1    
    33   16   17 1    
    34   17   18 1    
    35   17   86 1    
    36   17   87 1    
    37   18   19 1    
    38   18   37 1    
    39   18   88 1    
    40   19   20 am   BACKBONE|DICT|INTERRES
    41   19   89 1    
    42   20   21 2    
    43   20   22 1    
    44   22   23 1    
    45   22   24 1    
    46   22   90 1    
    47   23   91 1    
    48   23   92 1    
    49   23   93 1    
    50   24   25 am   BACKBONE|DICT|INTERRES
    51   24   94 1    
    52   25   26 2    
    53   25   27 1    
    54   27   28 1    
    55   27   29 1    
    56   27   95 1    
    57   28   96 1    
    58   28   97 1    
    59   28   98 1    
    60   29   30 am   BACKBONE|DICT|INTERRES
    61   29   99 1    
    62   30   31 2    
    63   30   32 1    
    64   32   33 1    
    65   32   34 1    
    66   32  100 1    
    67   33  101 1    
    68   33  102 1    
    69   33  103 1    
    70   34   35 am   BACKBONE|DICT|INTERRES
    71   34  104 1    
    72   35   36 2    
    73   37   38 2    
    74   37   39 am   BACKBONE|DICT|INTERRES
    75   39   40 1    
    76   39  105 1    
    77   40   41 1    
    78   40   42 1    
    79   40  106 1    
    80   41  107 1    
    81   41  108 1    
    82   41  109 1    
    83   42   43 2    
    84   42   44 am   BACKBONE|DICT|INTERRES
    85   44   45 1    
    86   44  110 1    
    87   45   46 1    
    88   45   47 1    
    89   45  111 1    
    90   46  112 1    
    91   46  113 1    
    92   46  114 1    
    93   47   48 2    
    94   47   49 am   BACKBONE|DICT|INTERRES
    95   49   50 1    
    96   49  115 1    
    97   50   51 1    
    98   50   52 1    
    99   50  116 1    
   100   51  117 1    
   101   51  118 1    
   102   51  119 1    
   103   52   53 2    
   104   52   54 am   BACKBONE|DICT|INTERRES
   105   54   55 1    
   106   54  120 1    
   107   55   56 1    
   108   55   57 1    
   109   55  121 1    
   110   56  122 1    
   111   56  123 1    
   112   56  124 1    
   113   57   58 2    
   114   57   59 am   BACKBONE|DICT|INTERRES
   115   59   60 1    
   116   59  125 1    
   117   60   61 1    
   118   60   62 1    
   119   60  126 1    
   120   61  127 1    
   121   61  128 1    
   122   61  129 1    
   123   62   63 2    
   124   62   64 am   BACKBONE|DICT|INTERRES
   125   64   65 1    
   126   64  130 1    
   127   65   66 1    
   128   65   69 1    
   129   65  131 1    
   130   66   67 am   BACKBONE|DICT|INTERRES
   131   66   68 2    
   132   67  132 1    
   133   67  133 1    
   134   69   70 1    
   135   69  134 1    
   136   69  135 1    
   137   70   71 1    
   138   71  136 1    
   139   71  137 1    
@<TRIPOS>SUBSTRUCTURE
     1 UNK         1 GROUP             0       ****    0 ROOT    
