@<TRIPOS>MOLECULE
3R136
137   139    1
SMALL
USER_CHARGES


@<TRIPOS>ATOM
      1 CA         27.0844   27.2508   -3.0060 C.3       0 UNK        -0.1979 
      2 C          27.0833   26.1546   -1.9522 C.2       0 UNK         0.4864 
      3 O          26.0980   26.0110   -1.2284 O.2       0 UNK        -0.5359 
      4 N          28.1700   25.3710   -1.8824 N.am      1 UNK        -0.4318 
      5 CA         28.4552   24.3275   -0.8825 C.3       1 UNK         0.0824 
      6 C6         29.7815   23.5897   -1.1895 C.3       12 UNK        -0.0944 
      7 S7         31.1951   24.7188   -1.4233 S.3       12 UNK        -0.2672 
      8 C8         32.5208   23.8395   -0.5435 C.3       12 UNK         0.0333 
      9 C9         32.5931   24.2377    0.9228 C.ar      12 UNK        -0.0807 
     10 C10        33.3557   25.3466    1.2996 C.ar      12 UNK        -0.0894 
     11 C11        33.4952   25.6894    2.6466 C.ar      12 UNK        -0.0804 
     12 C12        32.8518   24.9217    3.6215 C.ar      12 UNK        -0.0824 
     13 C13        32.0734   23.8175    3.2574 C.ar      12 UNK        -0.0762 
     14 C14        31.9475   23.4796    1.9055 C.ar      12 UNK        -0.0782 
     15 C15        31.4116   22.9598    4.3288 C.3       12 UNK         0.0230 
     16 S16        29.6137   23.2323    4.4386 S.3       12 UNK        -0.2608 
     17 C17        29.5236   24.9773    4.9636 C.3       12 UNK        -0.0989 
     18 CA         28.8709   25.8567    3.8683 C.3       5 UNK         0.0716 
     19 N          27.4497   25.5346    3.6965 N.am      5 UNK        -0.4135 
     20 C          26.7119   25.8370    2.6224 C.2       4 UNK         0.5031 
     21 O          27.1679   26.3687    1.6081 O.2       4 UNK        -0.5229 
     22 CA         25.2070   25.5850    2.7393 C.3       4 UNK         0.0329 
     23 CB         24.5268   26.7899    3.4215 C.3       4 UNK        -0.2001 
     24 N          24.6399   25.3629    1.4106 N.am      4 UNK        -0.4303 
     25 C          23.4266   24.8461    1.1736 C.2       3 UNK         0.5044 
     26 O          22.6386   24.5073    2.0579 O.2       3 UNK        -0.5152 
     27 CA         23.0273   24.6495   -0.2949 C.3       3 UNK         0.0319 
     28 CB         22.6995   25.9933   -0.9678 C.3       3 UNK        -0.2001 
     29 N          24.0914   23.9662   -1.0279 N.am      3 UNK        -0.4354 
     30 C          24.2220   22.6330   -1.0959 C.2       2 UNK         0.4964 
     31 O          23.4053   21.8414   -0.6231 O.2       2 UNK        -0.5047 
     32 CA         25.4638   22.0726   -1.8136 C.3       2 UNK         0.0288 
     33 CB         25.1282   21.7202   -3.2721 C.3       2 UNK        -0.2113 
     34 N          26.6125   22.9794   -1.7929 N.am      2 UNK        -0.4145 
     35 C          27.3263   23.2901   -0.7004 C.2       1 UNK         0.5006 
     36 O          27.1257   22.7982    0.4110 O.2       1 UNK        -0.5103 
     37 C          29.0343   27.3660    4.1481 C.2       5 UNK         0.5055 
     38 O          29.3409   27.7626    5.2728 O.2       5 UNK        -0.5220 
     39 N          28.7818   28.1771    3.1175 N.am      6 UNK        -0.4450 
     40 CA         28.8344   29.6364    3.1337 C.3       6 UNK         0.0367 
     41 CB         27.4528   30.1991    3.5209 C.3       6 UNK        -0.1929 
     42 C          29.3394   30.1579    1.7789 C.2       6 UNK         0.5070 
     43 O          28.8875   31.2051    1.3144 O.2       6 UNK        -0.5237 
     44 N          30.2639   29.4114    1.1555 N.am      7 UNK        -0.4739 
     45 CA         30.8912   29.7529   -0.1272 C.3       7 UNK         0.0276 
     46 CB         31.6408   28.5216   -0.6600 C.3       7 UNK        -0.1927 
     47 C          31.8322   30.9698   -0.0395 C.2       7 UNK         0.5013 
     48 O          32.0515   31.6442   -1.0465 O.2       7 UNK        -0.5193 
     49 N          32.3492   31.2330    1.1631 N.am      8 UNK        -0.4253 
     50 CA         33.1418   32.3908    1.5482 C.3       8 UNK         0.0242 
     51 CB         34.6298   32.1174    1.2628 C.3       8 UNK        -0.2000 
     52 C          32.9000   32.6250    3.0432 C.2       8 UNK         0.4948 
     53 O          32.4322   31.7155    3.7347 O.2       8 UNK        -0.5275 
     54 N          33.2686   33.8144    3.5381 N.am      9 UNK        -0.4246 
     55 CA         33.1720   34.1875    4.9576 C.3       9 UNK         0.0261 
     56 CB         33.5754   35.6610    5.1285 C.3       9 UNK        -0.1959 
     57 C          34.0026   33.2881    5.8946 C.2       9 UNK         0.5033 
     58 O          33.6238   33.0996    7.0514 O.2       9 UNK        -0.5390 
     59 N          35.0937   32.7185    5.3640 N.am      10 UNK        -0.4215 
     60 CA         35.9538   31.7401    6.0303 C.3       10 UNK         0.0240 
     61 CB         37.2264   31.5447    5.1890 C.3       10 UNK        -0.1982 
     62 C          35.2777   30.3810    6.2982 C.2       10 UNK         0.4970 
     63 O          35.7746   29.6381    7.1460 O.2       10 UNK        -0.4916 
     64 N          34.1841   30.0653    5.5878 N.am      11 UNK        -0.4279 
     65 CA         33.4239   28.8170    5.7634 C.3       11 UNK         0.1003 
     66 C          32.5549   28.7751    7.0538 C.2       11 UNK         0.5709 
     67 N          32.3130   29.8925    7.7315 N.am      11 UNK        -0.7358 
     68 O          32.1166   27.7024    7.4616 O.2       11 UNK        -0.4999 
     69 C69        32.5787   28.4546    4.5126 C.3       12 UNK        -0.0954 
     70 S70        33.5269   28.4519    2.9549 S.3       12 UNK        -0.2268 
     71 C71        34.3898   26.8543    3.0426 C.3       12 UNK         0.0203 
     72 H72        26.2464   27.1150   -3.6889 H         1 UNK         0.0888 
     73 H73        26.9813   28.2249   -2.5288 H         1 UNK         0.0888 
     74 H74        28.0039   27.2548   -3.5910 H         1 UNK         0.0888 
     75 H75        28.9378   25.5528   -2.5137 H         1 UNK         0.3017 
     76 H76        28.5731   24.8382    0.0741 H         1 UNK         0.0873 
     77 H77        30.0106   22.8904   -0.3835 H         1 UNK         0.0745 
     78 H78        29.6877   22.9876   -2.0956 H         1 UNK         0.0745 
     79 H79        33.4694   24.0732   -1.0295 H         1 UNK         0.0705 
     80 H80        32.3932   22.7608   -0.6472 H         1 UNK         0.0705 
     81 H81        33.8617   25.9316    0.5435 H         1 UNK         0.1334 
     82 H82        32.9728   25.1743    4.6660 H         1 UNK         0.1417 
     83 H83        31.3619   22.6151    1.6242 H         1 UNK         0.1562 
     84 H84        31.8617   23.1437    5.3057 H         1 UNK         0.0748 
     85 H85        31.5926   21.9068    4.1081 H         1 UNK         0.0748 
     86 H86        30.5260   25.3351    5.2038 H         1 UNK         0.0940 
     87 H87        28.9600   25.0365    5.8966 H         1 UNK         0.0940 
     88 H88        29.3904   25.6530    2.9283 H         1 UNK         0.0703 
     89 H89        26.9947   25.1219    4.4974 H         1 UNK         0.3081 
     90 H90        25.0522   24.6857    3.3393 H         1 UNK         0.0719 
     91 H91        24.9678   26.9919    4.3985 H         1 UNK         0.0809 
     92 H92        23.4631   26.6159    3.5829 H         1 UNK         0.0809 
     93 H93        24.6300   27.6971    2.8244 H         1 UNK         0.0809 
     94 H94        25.2482   25.6148    0.6336 H         1 UNK         0.2990 
     95 H95        22.1210   24.0403   -0.3205 H         1 UNK         0.0690 
     96 H96        22.3912   25.8514   -2.0036 H         1 UNK         0.0788 
     97 H97        23.5507   26.6746   -0.9631 H         1 UNK         0.0788 
     98 H98        21.8803   26.4950   -0.4512 H         1 UNK         0.0788 
     99 H99        24.8433   24.5574   -1.3717 H         1 UNK         0.2993 
    100 H100       25.7505   21.1544   -1.2960 H         1 UNK         0.0949 
    101 H101       24.2923   21.0207   -3.3220 H         1 UNK         0.0767 
    102 H102       24.8483   22.6039   -3.8472 H         1 UNK         0.0767 
    103 H103       25.9740   21.2468   -3.7713 H         1 UNK         0.0767 
    104 H104       26.8498   23.4365   -2.6613 H         1 UNK         0.3013 
    105 H105       28.4438   27.7499    2.2577 H         1 UNK         0.3121 
    106 H106       29.5607   29.9676    3.8788 H         1 UNK         0.0774 
    107 H107       27.4735   31.2881    3.5789 H         1 UNK         0.0815 
    108 H108       26.6898   29.9222    2.7924 H         1 UNK         0.0815 
    109 H109       27.1341   29.8313    4.4963 H         1 UNK         0.0815 
    110 H110       30.5928   28.5721    1.6115 H         1 UNK         0.2987 
    111 H111       30.0987   30.0057   -0.8351 H         1 UNK         0.0949 
    112 H112       30.9650   27.6777   -0.7971 H         1 UNK         0.0806 
    113 H113       32.0976   28.7301   -1.6283 H         1 UNK         0.0806 
    114 H114       32.4373   28.2076    0.0156 H         1 UNK         0.0806 
    115 H115       32.0889   30.6457    1.9469 H         1 UNK         0.3010 
    116 H116       32.8035   33.2684    0.9932 H         1 UNK         0.0829 
    117 H117       34.7990   31.9189    0.2043 H         1 UNK         0.0813 
    118 H118       35.2494   32.9733    1.5321 H         1 UNK         0.0813 
    119 H119       34.9948   31.2559    1.8245 H         1 UNK         0.0813 
    120 H120       33.6444   34.5110    2.9098 H         1 UNK         0.3038 
    121 H121       32.1261   34.0823    5.2541 H         1 UNK         0.0769 
    122 H122       34.6068   35.8371    4.8205 H         1 UNK         0.0811 
    123 H123       33.4898   35.9700    6.1714 H         1 UNK         0.0811 
    124 H124       32.9320   36.3198    4.5449 H         1 UNK         0.0811 
    125 H125       35.3222   32.9431    4.4071 H         1 UNK         0.3204 
    126 H126       36.2420   32.1542    6.9989 H         1 UNK         0.0748 
    127 H127       37.9119   30.8473    5.6728 H         1 UNK         0.0771 
    128 H128       36.9990   31.1439    4.2001 H         1 UNK         0.0771 
    129 H129       37.7645   32.4836    5.0570 H         1 UNK         0.0771 
    130 H130       33.7966   30.7239    4.9218 H         1 UNK         0.2980 
    131 H131       34.1553   28.0172    5.8887 H         1 UNK         0.0545 
    132 H132       32.6832   30.7768    7.4153 H         1 UNK         0.3459 
    133 H133       31.7569   29.8487    8.5704 H         1 UNK         0.3459 
    134 H134       31.7632   29.1690    4.3977 H         1 UNK         0.0616 
    135 H135       32.1069   27.4796    4.6359 H         1 UNK         0.0616 
    136 H136       34.7984   26.7043    4.0423 H         1 UNK         0.0634 
    137 H137       35.2499   26.8930    2.3726 H         1 UNK         0.0634 
@<TRIPOS>BOND
     1    1    2 1    
     2    1   72 1    
     3    1   73 1    
     4    1   74 1    
     5    2    3 2    
     6    2    4 am   BACKBONE|DICT|INTERRES
     7    4    5 1    
     8    4   75 1    
     9    5    6 1    
    10    5   35 1    
    11    5   76 1    
    12    6    7 1    
    13    6   77 1    
    14    6   78 1    
    15    7    8 1    
    16    8    9 1    
    17    8   79 1    
    18    8   80 1    
    19    9   10 ar   
    20    9   14 ar   
    21   10   11 ar   
    22   10   81 1    
    23   11   12 ar   
    24   11   71 1    
    25   12   13 ar   
    26   12   82 1    
    27   13   14 ar   
    28   13   15 1    
    29   14   83 1    
    30   15   16 1    
    31   15   84 1    
    32   15   85 1    
    33   16   17 1    
    34   17   18 1    
    35   17   86 1    
    36   17   87 1    
    37   18   19 1    
    38   18   37 1    
    39   18   88 1    
    40   19   20 am   BACKBONE|DICT|INTERRES
    41   19   89 1    
    42   20   21 2    
    43   20   22 1    
    44   22   23 1    
    45   22   24 1    
    46   22   90 1    
    47   23   91 1    
    48   23   92 1    
    49   23   93 1    
    50   24   25 am   BACKBONE|DICT|INTERRES
    51   24   94 1    
    52   25   26 2    
    53   25   27 1    
    54   27   28 1    
    55   27   29 1    
    56   27   95 1    
    57   28   96 1    
    58   28   97 1    
    59   28   98 1    
    60   29   30 am   BACKBONE|DICT|INTERRES
    61   29   99 1    
    62   30   31 2    
    63   30   32 1    
    64   32   33 1    
    65   32   34 1    
    66   32  100 1    
    67   33  101 1    
    68   33  102 1    
    69   33  103 1    
    70   34   35 am   BACKBONE|DICT|INTERRES
    71   34  104 1    
    72   35   36 2    
    73   37   38 2    
    74   37   39 am   BACKBONE|DICT|INTERRES
    75   39   40 1    
    76   39  105 1    
    77   40   41 1    
    78   40   42 1    
    79   40  106 1    
    80   41  107 1    
    81   41  108 1    
    82   41  109 1    
    83   42   43 2    
    84   42   44 am   BACKBONE|DICT|INTERRES
    85   44   45 1    
    86   44  110 1    
    87   45   46 1    
    88   45   47 1    
    89   45  111 1    
    90   46  112 1    
    91   46  113 1    
    92   46  114 1    
    93   47   48 2    
    94   47   49 am   BACKBONE|DICT|INTERRES
    95   49   50 1    
    96   49  115 1    
    97   50   51 1    
    98   50   52 1    
    99   50  116 1    
   100   51  117 1    
   101   51  118 1    
   102   51  119 1    
   103   52   53 2    
   104   52   54 am   BACKBONE|DICT|INTERRES
   105   54   55 1    
   106   54  120 1    
   107   55   56 1    
   108   55   57 1    
   109   55  121 1    
   110   56  122 1    
   111   56  123 1    
   112   56  124 1    
   113   57   58 2    
   114   57   59 am   BACKBONE|DICT|INTERRES
   115   59   60 1    
   116   59  125 1    
   117   60   61 1    
   118   60   62 1    
   119   60  126 1    
   120   61  127 1    
   121   61  128 1    
   122   61  129 1    
   123   62   63 2    
   124   62   64 am   BACKBONE|DICT|INTERRES
   125   64   65 1    
   126   64  130 1    
   127   65   66 1    
   128   65   69 1    
   129   65  131 1    
   130   66   67 am   BACKBONE|DICT|INTERRES
   131   66   68 2    
   132   67  132 1    
   133   67  133 1    
   134   69   70 1    
   135   69  134 1    
   136   69  135 1    
   137   70   71 1    
   138   71  136 1    
   139   71  137 1    
@<TRIPOS>SUBSTRUCTURE
     1 UNK         1 GROUP             0       ****    0 ROOT    
