@<TRIPOS>MOLECULE
3R136
137   139    1
SMALL
USER_CHARGES


@<TRIPOS>ATOM
      1 CA         25.0006   23.6495    5.8864 C.3       0 UNK        -0.1979 
      2 C          25.6033   22.8545    4.7372 C.2       0 UNK         0.4864 
      3 O          25.2687   21.6816    4.5624 O.2       0 UNK        -0.5359 
      4 N          26.4955   23.4817    3.9600 N.am      1 UNK        -0.4318 
      5 CA         27.1247   22.9022    2.7702 C.3       1 UNK         0.0824 
      6 C6         28.3509   23.7394    2.3315 C.3       12 UNK        -0.0944 
      7 S7         29.5218   22.7852    1.3107 S.3       12 UNK        -0.2672 
      8 C8         31.1091   23.1555    2.1248 C.3       12 UNK         0.0333 
      9 C9         31.5419   24.6049    1.9348 C.ar      12 UNK        -0.0807 
     10 C10        31.7445   25.4360    3.0429 C.ar      12 UNK        -0.0894 
     11 C11        32.2011   26.7469    2.8718 C.ar      12 UNK        -0.0804 
     12 C12        32.4306   27.2318    1.5815 C.ar      12 UNK        -0.0824 
     13 C13        32.2258   26.4161    0.4668 C.ar      12 UNK        -0.0762 
     14 C14        31.7849   25.1025    0.6497 C.ar      12 UNK        -0.0782 
     15 C15        32.5224   26.9412   -0.9304 C.3       12 UNK         0.0230 
     16 S16        31.0101   27.3662   -1.8495 S.3       12 UNK        -0.2608 
     17 C17        30.4209   28.8610   -0.9689 C.3       12 UNK        -0.0989 
     18 CA         28.9107   28.8470   -0.6143 C.3       5 UNK         0.0716 
     19 N          28.0900   28.5103   -1.7754 N.am      5 UNK        -0.4135 
     20 C          26.8187   28.8819   -1.9635 C.2       4 UNK         0.5031 
     21 O          26.2365   29.7243   -1.2787 O.2       4 UNK        -0.5229 
     22 CA         26.0630   28.1689   -3.1003 C.3       4 UNK         0.0329 
     23 CB         26.3155   28.8699   -4.4451 C.3       4 UNK        -0.2001 
     24 N          26.4213   26.7491   -3.2088 N.am      4 UNK        -0.4303 
     25 C          26.1086   25.8220   -2.2917 C.2       3 UNK         0.5044 
     26 O          25.3999   26.0450   -1.3060 O.2       3 UNK        -0.5152 
     27 CA         26.6774   24.4140   -2.5217 C.3       3 UNK         0.0319 
     28 CB         28.2183   24.3973   -2.4408 C.3       3 UNK        -0.2001 
     29 N          26.1215   23.5109   -1.5179 N.am      3 UNK        -0.4354 
     30 C          26.0461   22.1799   -1.6061 C.2       2 UNK         0.4964 
     31 O          26.4440   21.5379   -2.5804 O.2       2 UNK        -0.5047 
     32 CA         25.4502   21.4484   -0.3875 C.3       2 UNK         0.0288 
     33 CB         25.3476   19.9252   -0.5969 C.3       2 UNK        -0.2113 
     34 N          26.2503   21.7070    0.8117 N.am      2 UNK        -0.4145 
     35 C          26.1038   22.7646    1.6197 C.2       1 UNK         0.5006 
     36 O          25.2373   23.6289    1.4590 O.2       1 UNK        -0.5103 
     37 C          28.5728   27.8651    0.5257 C.2       5 UNK         0.5055 
     38 O          28.3567   26.6828    0.2578 O.2       5 UNK        -0.5220 
     39 N          28.5163   28.3634    1.7664 N.am      6 UNK        -0.4450 
     40 CA         28.1588   27.5754    2.9503 C.3       6 UNK         0.0367 
     41 CB         26.6643   27.1887    2.9361 C.3       6 UNK        -0.1929 
     42 C          28.4996   28.3116    4.2494 C.2       6 UNK         0.5070 
     43 O          28.8926   27.6610    5.2177 O.2       6 UNK        -0.5237 
     44 N          28.3392   29.6442    4.2620 N.am      7 UNK        -0.4739 
     45 CA         28.7109   30.5075    5.3866 C.3       7 UNK         0.0276 
     46 CB         28.2160   31.9372    5.1148 C.3       7 UNK        -0.1927 
     47 C          30.2309   30.5031    5.6072 C.2       7 UNK         0.5013 
     48 O          30.9764   30.5801    4.6286 O.2       7 UNK        -0.5193 
     49 N          30.6579   30.4441    6.8769 N.am      8 UNK        -0.4253 
     50 CA         32.0551   30.2845    7.3059 C.3       8 UNK         0.0242 
     51 CB         32.1240   30.2959    8.8410 C.3       8 UNK        -0.2000 
     52 C          33.0442   31.3058    6.7194 C.2       8 UNK         0.4948 
     53 O          34.2000   30.9557    6.4868 O.2       8 UNK        -0.5275 
     54 N          32.5709   32.5239    6.4235 N.am      9 UNK        -0.4246 
     55 CA         33.3258   33.5741    5.7324 C.3       9 UNK         0.0261 
     56 CB         32.4573   34.8397    5.6450 C.3       9 UNK        -0.1959 
     57 C          33.8368   33.1763    4.3313 C.2       9 UNK         0.5033 
     58 O          34.8139   33.7658    3.8674 O.2       9 UNK        -0.5390 
     59 N          33.1916   32.1914    3.6886 N.am      10 UNK        -0.4215 
     60 CA         33.5773   31.6619    2.3813 C.3       10 UNK         0.0240 
     61 CB         32.3102   31.2096    1.6320 C.3       10 UNK        -0.1982 
     62 C          34.6131   30.5220    2.4521 C.2       10 UNK         0.4970 
     63 O          35.0223   30.0562    1.3873 O.2       10 UNK        -0.4916 
     64 N          35.0158   30.0710    3.6513 N.am      11 UNK        -0.4279 
     65 CA         35.9675   28.9562    3.8181 C.3       11 UNK         0.1003 
     66 C          36.9309   29.0615    5.0325 C.2       11 UNK         0.5709 
     67 N          36.7021   29.9238    6.0126 N.am      11 UNK        -0.7358 
     68 O          37.9419   28.3633    5.0685 O.2       11 UNK        -0.4999 
     69 C69        35.2891   27.5634    3.6995 C.3       12 UNK        -0.0954 
     70 S70        33.9996   27.2308    4.9541 S.3       12 UNK        -0.2268 
     71 C71        32.4567   27.6432    4.0757 C.3       12 UNK         0.0203 
     72 H72        23.9190   23.7148    5.7699 H         1 UNK         0.0888 
     73 H73        25.2126   23.1572    6.8352 H         1 UNK         0.0888 
     74 H74        25.3980   24.6634    5.9345 H         1 UNK         0.0888 
     75 H75        26.7105   24.4505    4.1400 H         1 UNK         0.3017 
     76 H76        27.4671   21.9030    3.0499 H         1 UNK         0.0873 
     77 H77        28.8840   24.1045    3.2107 H         1 UNK         0.0745 
     78 H78        28.0474   24.6285    1.7783 H         1 UNK         0.0745 
     79 H79        31.0388   22.9002    3.1834 H         1 UNK         0.0705 
     80 H80        31.8763   22.5038    1.7047 H         1 UNK         0.0705 
     81 H81        31.5711   25.0597    4.0418 H         1 UNK         0.1334 
     82 H82        32.7944   28.2402    1.4452 H         1 UNK         0.1417 
     83 H83        31.6314   24.4644   -0.2101 H         1 UNK         0.1562 
     84 H84        33.0690   26.1810   -1.4903 H         1 UNK         0.0748 
     85 H85        33.1771   27.8134   -0.8878 H         1 UNK         0.0748 
     86 H86        30.6267   29.7169   -1.6135 H         1 UNK         0.0940 
     87 H87        31.0163   29.0299   -0.0721 H         1 UNK         0.0940 
     88 H88        28.6412   29.8523   -0.2828 H         1 UNK         0.0703 
     89 H89        28.4664   27.7754   -2.3555 H         1 UNK         0.3081 
     90 H90        24.9954   28.2327   -2.8786 H         1 UNK         0.0719 
     91 H91        26.0371   29.9235   -4.3925 H         1 UNK         0.0809 
     92 H92        25.7250   28.4206   -5.2438 H         1 UNK         0.0809 
     93 H93        27.3656   28.8250   -4.7366 H         1 UNK         0.0809 
     94 H94        26.9802   26.4785   -4.0054 H         1 UNK         0.2990 
     95 H95        26.3591   24.0847   -3.5129 H         1 UNK         0.0690 
     96 H96        28.5706   24.6859   -1.4497 H         1 UNK         0.0788 
     97 H97        28.6690   25.0819   -3.1597 H         1 UNK         0.0788 
     98 H98        28.6164   23.4052   -2.6537 H         1 UNK         0.0788 
     99 H99        25.7425   23.9799   -0.6997 H         1 UNK         0.2993 
    100 H100       24.4377   21.8319   -0.2414 H         1 UNK         0.0949 
    101 H101       26.3267   19.4703   -0.7527 H         1 UNK         0.0767 
    102 H102       24.8845   19.4382    0.2616 H         1 UNK         0.0767 
    103 H103       24.7354   19.6912   -1.4690 H         1 UNK         0.0767 
    104 H104       27.0260   21.0802    0.9740 H         1 UNK         0.3013 
    105 H105       28.7797   29.3247    1.9274 H         1 UNK         0.3121 
    106 H106       28.7615   26.6647    2.9398 H         1 UNK         0.0774 
    107 H107       26.3814   26.6758    3.8558 H         1 UNK         0.0815 
    108 H108       26.0247   28.0670    2.8447 H         1 UNK         0.0815 
    109 H109       26.4260   26.5181    2.1100 H         1 UNK         0.0815 
    110 H110       27.9565   30.1066    3.4521 H         1 UNK         0.2987 
    111 H111       28.2168   30.1275    6.2837 H         1 UNK         0.0949 
    112 H112       28.6777   32.3619    4.2221 H         1 UNK         0.0806 
    113 H113       27.1345   31.9653    4.9801 H         1 UNK         0.0806 
    114 H114       28.4534   32.5986    5.9492 H         1 UNK         0.0806 
    115 H115       29.9652   30.4088    7.6112 H         1 UNK         0.3010 
    116 H116       32.3799   29.3011    6.9592 H         1 UNK         0.0829 
    117 H117       31.5288   29.4909    9.2724 H         1 UNK         0.0813 
    118 H118       33.1496   30.1566    9.1868 H         1 UNK         0.0813 
    119 H119       31.7659   31.2395    9.2547 H         1 UNK         0.0813 
    120 H120       31.6043   32.7220    6.6367 H         1 UNK         0.3038 
    121 H121       34.2030   33.8001    6.3421 H         1 UNK         0.0769 
    122 H122       31.5479   34.6657    5.0683 H         1 UNK         0.0811 
    123 H123       32.9997   35.6528    5.1603 H         1 UNK         0.0811 
    124 H124       32.1670   35.1927    6.6348 H         1 UNK         0.0811 
    125 H125       32.4002   31.7344    4.1389 H         1 UNK         0.3204 
    126 H126       34.0332   32.4628    1.7954 H         1 UNK         0.0748 
    127 H127       31.5904   32.0237    1.5456 H         1 UNK         0.0771 
    128 H128       32.5503   30.8847    0.6189 H         1 UNK         0.0771 
    129 H129       31.8142   30.3793    2.1340 H         1 UNK         0.0771 
    130 H130       34.6574   30.4873    4.5023 H         1 UNK         0.2980 
    131 H131       36.6617   29.0193    2.9775 H         1 UNK         0.0545 
    132 H132       35.8173   30.4211    6.0920 H         1 UNK         0.3459 
    133 H133       37.3631   29.9759    6.7704 H         1 UNK         0.3459 
    134 H134       34.8717   27.4479    2.7011 H         1 UNK         0.0616 
    135 H135       36.0376   26.7732    3.7789 H         1 UNK         0.0616 
    136 H136       32.4973   28.6877    3.7711 H         1 UNK         0.0634 
    137 H137       31.6230   27.5616    4.7737 H         1 UNK         0.0634 
@<TRIPOS>BOND
     1    1    2 1    
     2    1   72 1    
     3    1   73 1    
     4    1   74 1    
     5    2    3 2    
     6    2    4 am   BACKBONE|DICT|INTERRES
     7    4    5 1    
     8    4   75 1    
     9    5    6 1    
    10    5   35 1    
    11    5   76 1    
    12    6    7 1    
    13    6   77 1    
    14    6   78 1    
    15    7    8 1    
    16    8    9 1    
    17    8   79 1    
    18    8   80 1    
    19    9   10 ar   
    20    9   14 ar   
    21   10   11 ar   
    22   10   81 1    
    23   11   12 ar   
    24   11   71 1    
    25   12   13 ar   
    26   12   82 1    
    27   13   14 ar   
    28   13   15 1    
    29   14   83 1    
    30   15   16 1    
    31   15   84 1    
    32   15   85 1    
    33   16   17 1    
    34   17   18 1    
    35   17   86 1    
    36   17   87 1    
    37   18   19 1    
    38   18   37 1    
    39   18   88 1    
    40   19   20 am   BACKBONE|DICT|INTERRES
    41   19   89 1    
    42   20   21 2    
    43   20   22 1    
    44   22   23 1    
    45   22   24 1    
    46   22   90 1    
    47   23   91 1    
    48   23   92 1    
    49   23   93 1    
    50   24   25 am   BACKBONE|DICT|INTERRES
    51   24   94 1    
    52   25   26 2    
    53   25   27 1    
    54   27   28 1    
    55   27   29 1    
    56   27   95 1    
    57   28   96 1    
    58   28   97 1    
    59   28   98 1    
    60   29   30 am   BACKBONE|DICT|INTERRES
    61   29   99 1    
    62   30   31 2    
    63   30   32 1    
    64   32   33 1    
    65   32   34 1    
    66   32  100 1    
    67   33  101 1    
    68   33  102 1    
    69   33  103 1    
    70   34   35 am   BACKBONE|DICT|INTERRES
    71   34  104 1    
    72   35   36 2    
    73   37   38 2    
    74   37   39 am   BACKBONE|DICT|INTERRES
    75   39   40 1    
    76   39  105 1    
    77   40   41 1    
    78   40   42 1    
    79   40  106 1    
    80   41  107 1    
    81   41  108 1    
    82   41  109 1    
    83   42   43 2    
    84   42   44 am   BACKBONE|DICT|INTERRES
    85   44   45 1    
    86   44  110 1    
    87   45   46 1    
    88   45   47 1    
    89   45  111 1    
    90   46  112 1    
    91   46  113 1    
    92   46  114 1    
    93   47   48 2    
    94   47   49 am   BACKBONE|DICT|INTERRES
    95   49   50 1    
    96   49  115 1    
    97   50   51 1    
    98   50   52 1    
    99   50  116 1    
   100   51  117 1    
   101   51  118 1    
   102   51  119 1    
   103   52   53 2    
   104   52   54 am   BACKBONE|DICT|INTERRES
   105   54   55 1    
   106   54  120 1    
   107   55   56 1    
   108   55   57 1    
   109   55  121 1    
   110   56  122 1    
   111   56  123 1    
   112   56  124 1    
   113   57   58 2    
   114   57   59 am   BACKBONE|DICT|INTERRES
   115   59   60 1    
   116   59  125 1    
   117   60   61 1    
   118   60   62 1    
   119   60  126 1    
   120   61  127 1    
   121   61  128 1    
   122   61  129 1    
   123   62   63 2    
   124   62   64 am   BACKBONE|DICT|INTERRES
   125   64   65 1    
   126   64  130 1    
   127   65   66 1    
   128   65   69 1    
   129   65  131 1    
   130   66   67 am   BACKBONE|DICT|INTERRES
   131   66   68 2    
   132   67  132 1    
   133   67  133 1    
   134   69   70 1    
   135   69  134 1    
   136   69  135 1    
   137   70   71 1    
   138   71  136 1    
   139   71  137 1    
@<TRIPOS>SUBSTRUCTURE
     1 UNK         1 GROUP             0       ****    0 ROOT    
