@<TRIPOS>MOLECULE
3R136
137   139    1
SMALL
USER_CHARGES


@<TRIPOS>ATOM
      1 CA         25.0009   20.4362    1.9373 C.3       0 UNK        -0.1979 
      2 C          25.7373   21.4272    1.0487 C.2       0 UNK         0.4864 
      3 O          25.0984   22.2051    0.3390 O.2       0 UNK        -0.5359 
      4 N          27.0773   21.4072    1.0812 N.am      1 UNK        -0.4318 
      5 CA         27.9448   22.3111    0.3164 C.3       1 UNK         0.0824 
      6 C6         29.4117   21.8202    0.2599 C.3       12 UNK        -0.0944 
      7 S7         30.1558   21.4960    1.8965 S.3       12 UNK        -0.2672 
      8 C8         31.9284   21.6382    1.5134 C.3       12 UNK         0.0333 
      9 C9         32.4227   23.0739    1.6204 C.ar      12 UNK        -0.0807 
     10 C10        32.8300   23.5760    2.8605 C.ar      12 UNK        -0.0894 
     11 C11        33.3354   24.8741    2.9683 C.ar      12 UNK        -0.0804 
     12 C12        33.4248   25.6753    1.8266 C.ar      12 UNK        -0.0824 
     13 C13        33.0067   25.1921    0.5834 C.ar      12 UNK        -0.0762 
     14 C14        32.5092   23.8879    0.4851 C.ar      12 UNK        -0.0782 
     15 C15        33.1205   26.0745   -0.6530 C.3       12 UNK         0.0230 
     16 S16        32.0205   27.5240   -0.5670 S.3       12 UNK        -0.2608 
     17 C17        30.3746   26.7410   -0.6185 C.3       12 UNK        -0.0989 
     18 CA         29.3261   27.6037   -1.3689 C.3       5 UNK         0.0716 
     19 N          28.2364   26.7645   -1.8621 N.am      5 UNK        -0.4135 
     20 C          27.3851   27.0790   -2.8470 C.2       4 UNK         0.5031 
     21 O          27.5276   28.0390   -3.6056 O.2       4 UNK        -0.5229 
     22 CA         26.1415   26.1809   -2.9732 C.3       4 UNK         0.0329 
     23 CB         26.5004   24.8298   -3.6141 C.3       4 UNK        -0.2001 
     24 N          25.5243   25.9550   -1.6635 N.am      4 UNK        -0.4303 
     25 C          24.8121   26.8737   -0.9897 C.2       3 UNK         0.5044 
     26 O          24.4312   27.9402   -1.4729 O.2       3 UNK        -0.5152 
     27 CA         24.5169   26.5652    0.4845 C.3       3 UNK         0.0319 
     28 CB         23.3416   25.5795    0.6256 C.3       3 UNK        -0.2001 
     29 N          25.7297   26.0375    1.1019 N.am      3 UNK        -0.4354 
     30 C          26.0011   25.8850    2.3985 C.2       2 UNK         0.4964 
     31 O          25.2136   26.1594    3.3052 O.2       2 UNK        -0.5047 
     32 CA         27.3988   25.3080    2.7155 C.3       2 UNK         0.0288 
     33 CB         27.6637   25.1749    4.2269 C.3       2 UNK        -0.2113 
     34 N          27.6151   24.0008    2.0847 N.am      2 UNK        -0.4145 
     35 C          27.8451   23.7776    0.7817 C.2       1 UNK         0.5006 
     36 O          27.9249   24.6775   -0.0570 O.2       1 UNK        -0.5103 
     37 C          28.7557   28.7223   -0.4679 C.2       5 UNK         0.5055 
     38 O          27.6152   28.6299   -0.0077 O.2       5 UNK        -0.5220 
     39 N          29.5772   29.7424   -0.1896 N.am      6 UNK        -0.4450 
     40 CA         29.2310   30.9210    0.6164 C.3       6 UNK         0.0367 
     41 CB         30.2657   32.0274    0.3469 C.3       6 UNK        -0.1929 
     42 C          29.0816   30.6608    2.1323 C.2       6 UNK         0.5070 
     43 O          28.8582   31.6155    2.8787 O.2       6 UNK        -0.5237 
     44 N          29.2125   29.3983    2.5675 N.am      7 UNK        -0.4739 
     45 CA         29.1124   28.9190    3.9499 C.3       7 UNK         0.0276 
     46 CB         27.6661   29.0644    4.4765 C.3       7 UNK        -0.1927 
     47 C          30.1852   29.5751    4.8347 C.2       7 UNK         0.5013 
     48 O          31.3506   29.5737    4.4393 O.2       7 UNK        -0.5193 
     49 N          29.7994   30.1457    5.9847 N.am      8 UNK        -0.4253 
     50 CA         30.6911   30.7750    6.9684 C.3       8 UNK         0.0242 
     51 CB         29.8522   31.3345    8.1281 C.3       8 UNK        -0.2000 
     52 C          31.6241   31.8656    6.4070 C.2       8 UNK         0.4948 
     53 O          32.7237   32.0356    6.9333 O.2       8 UNK        -0.5275 
     54 N          31.2042   32.5493    5.3321 N.am      9 UNK        -0.4246 
     55 CA         32.0244   33.5203    4.6027 C.3       9 UNK         0.0261 
     56 CB         31.1311   34.3247    3.6461 C.3       9 UNK        -0.1959 
     57 C          33.2057   32.8847    3.8420 C.2       9 UNK         0.5033 
     58 O          34.1932   33.5795    3.5972 O.2       9 UNK        -0.5390 
     59 N          33.0976   31.5954    3.4915 N.am      10 UNK        -0.4215 
     60 CA         34.1697   30.8007    2.8931 C.3       10 UNK         0.0240 
     61 CB         33.5940   29.8988    1.7869 C.3       10 UNK        -0.1982 
     62 C          34.8823   29.9548    3.9581 C.2       10 UNK         0.4970 
     63 O          36.1129   29.9085    3.9622 O.2       10 UNK        -0.4916 
     64 N          34.1051   29.2900    4.8237 N.am      11 UNK        -0.4279 
     65 CA         34.6053   28.3591    5.8466 C.3       11 UNK         0.1003 
     66 C          35.3188   29.0333    7.0516 C.2       11 UNK         0.5709 
     67 N          35.0624   30.2985    7.3604 N.am      11 UNK        -0.7358 
     68 O          36.1310   28.3937    7.7157 O.2       11 UNK        -0.4999 
     69 C69        33.5138   27.3661    6.3366 C.3       12 UNK        -0.0954 
     70 S70        32.5687   26.5589    4.9995 S.3       12 UNK        -0.2268 
     71 C71        33.7994   25.4155    4.3103 C.3       12 UNK         0.0203 
     72 H72        24.3607   20.9679    2.6406 H         1 UNK         0.0888 
     73 H73        24.3735   19.7837    1.3308 H         1 UNK         0.0888 
     74 H74        25.6877   19.8117    2.5084 H         1 UNK         0.0888 
     75 H75        27.5576   20.7458    1.6759 H         1 UNK         0.3017 
     76 H76        27.5735   22.3036   -0.7111 H         1 UNK         0.0873 
     77 H77        30.0259   22.5342   -0.2908 H         1 UNK         0.0745 
     78 H78        29.4596   20.8924   -0.3124 H         1 UNK         0.0745 
     79 H79        32.1291   21.2322    0.5206 H         1 UNK         0.0705 
     80 H80        32.4849   21.0104    2.2110 H         1 UNK         0.0705 
     81 H81        32.7622   22.9506    3.7404 H         1 UNK         0.1334 
     82 H82        33.8123   26.6819    1.9077 H         1 UNK         0.1417 
     83 H83        32.2025   23.5018   -0.4771 H         1 UNK         0.1562 
     84 H84        32.9054   25.5104   -1.5619 H         1 UNK         0.0748 
     85 H85        34.1503   26.4220   -0.7468 H         1 UNK         0.0748 
     86 H86        30.0545   26.4988    0.3972 H         1 UNK         0.0940 
     87 H87        30.4832   25.7800   -1.1246 H         1 UNK         0.0940 
     88 H88        29.8008   28.0711   -2.2346 H         1 UNK         0.0703 
     89 H89        28.0326   25.9525   -1.2843 H         1 UNK         0.3081 
     90 H90        25.4204   26.6864   -3.6193 H         1 UNK         0.0719 
     91 H91        26.9595   24.9737   -4.5932 H         1 UNK         0.0809 
     92 H92        27.2040   24.2617   -3.0039 H         1 UNK         0.0809 
     93 H93        25.6128   24.2142   -3.7612 H         1 UNK         0.0809 
     94 H94        25.7422   25.0800   -1.2079 H         1 UNK         0.2990 
     95 H95        24.2598   27.5030    0.9812 H         1 UNK         0.0690 
     96 H96        23.0746   25.4239    1.6708 H         1 UNK         0.0788 
     97 H97        23.5768   24.6058    0.1940 H         1 UNK         0.0788 
     98 H98        22.4529   25.9577    0.1189 H         1 UNK         0.0788 
     99 H99        26.4803   25.8030    0.4606 H         1 UNK         0.2993 
    100 H100       28.1307   26.0110    2.3113 H         1 UNK         0.0949 
    101 H101       27.5272   26.1283    4.7374 H         1 UNK         0.0767 
    102 H102       26.9867   24.4578    4.6928 H         1 UNK         0.0767 
    103 H103       28.6859   24.8490    4.4218 H         1 UNK         0.0767 
    104 H104       27.5401   23.1953    2.6884 H         1 UNK         0.3013 
    105 H105       30.5196   29.7066   -0.5545 H         1 UNK         0.3121 
    106 H106       28.2605   31.2807    0.2680 H         1 UNK         0.0774 
    107 H107       29.9402   32.9746    0.7773 H         1 UNK         0.0815 
    108 H108       31.2363   31.7886    0.7813 H         1 UNK         0.0815 
    109 H109       30.4039   32.1973   -0.7209 H         1 UNK         0.0815 
    110 H110       29.4344   28.6989    1.8753 H         1 UNK         0.2987 
    111 H111       29.3566   27.8558    3.9282 H         1 UNK         0.0949 
    112 H112       27.5497   28.5976    5.4554 H         1 UNK         0.0806 
    113 H113       26.9580   28.5746    3.8078 H         1 UNK         0.0806 
    114 H114       27.3599   30.1075    4.5643 H         1 UNK         0.0806 
    115 H115       28.8169   30.1263    6.2160 H         1 UNK         0.3010 
    116 H116       31.3333   29.9854    7.3638 H         1 UNK         0.0829 
    117 H117       29.2767   30.5493    8.6188 H         1 UNK         0.0813 
    118 H118       30.4902   31.7874    8.8887 H         1 UNK         0.0813 
    119 H119       29.1554   32.1019    7.7886 H         1 UNK         0.0813 
    120 H120       30.2969   32.3304    4.9411 H         1 UNK         0.3038 
    121 H121       32.4476   34.2144    5.3321 H         1 UNK         0.0769 
    122 H122       31.7123   35.0687    3.0996 H         1 UNK         0.0811 
    123 H123       30.3491   34.8580    4.1867 H         1 UNK         0.0811 
    124 H124       30.6505   33.6810    2.9107 H         1 UNK         0.0811 
    125 H125       32.2728   31.0759    3.7818 H         1 UNK         0.3204 
    126 H126       34.9138   31.4557    2.4349 H         1 UNK         0.0748 
    127 H127       34.3666   29.2537    1.3662 H         1 UNK         0.0771 
    128 H128       32.7970   29.2518    2.1563 H         1 UNK         0.0771 
    129 H129       33.1915   30.4892    0.9650 H         1 UNK         0.0771 
    130 H130       33.0929   29.3476    4.7302 H         1 UNK         0.2980 
    131 H131       35.3796   27.7623    5.3626 H         1 UNK         0.0545 
    132 H132       35.5431   30.7149    8.1413 H         1 UNK         0.3459 
    133 H133       34.3433   30.8277    6.8811 H         1 UNK         0.3459 
    134 H134       33.9568   26.5879    6.9609 H         1 UNK         0.0616 
    135 H135       32.7922   27.8881    6.9673 H         1 UNK         0.0616 
    136 H136       34.7522   25.9264    4.1730 H         1 UNK         0.0634 
    137 H137       33.9779   24.6062    5.0198 H         1 UNK         0.0634 
@<TRIPOS>BOND
     1    1    2 1    
     2    1   72 1    
     3    1   73 1    
     4    1   74 1    
     5    2    3 2    
     6    2    4 am   BACKBONE|DICT|INTERRES
     7    4    5 1    
     8    4   75 1    
     9    5    6 1    
    10    5   35 1    
    11    5   76 1    
    12    6    7 1    
    13    6   77 1    
    14    6   78 1    
    15    7    8 1    
    16    8    9 1    
    17    8   79 1    
    18    8   80 1    
    19    9   10 ar   
    20    9   14 ar   
    21   10   11 ar   
    22   10   81 1    
    23   11   12 ar   
    24   11   71 1    
    25   12   13 ar   
    26   12   82 1    
    27   13   14 ar   
    28   13   15 1    
    29   14   83 1    
    30   15   16 1    
    31   15   84 1    
    32   15   85 1    
    33   16   17 1    
    34   17   18 1    
    35   17   86 1    
    36   17   87 1    
    37   18   19 1    
    38   18   37 1    
    39   18   88 1    
    40   19   20 am   BACKBONE|DICT|INTERRES
    41   19   89 1    
    42   20   21 2    
    43   20   22 1    
    44   22   23 1    
    45   22   24 1    
    46   22   90 1    
    47   23   91 1    
    48   23   92 1    
    49   23   93 1    
    50   24   25 am   BACKBONE|DICT|INTERRES
    51   24   94 1    
    52   25   26 2    
    53   25   27 1    
    54   27   28 1    
    55   27   29 1    
    56   27   95 1    
    57   28   96 1    
    58   28   97 1    
    59   28   98 1    
    60   29   30 am   BACKBONE|DICT|INTERRES
    61   29   99 1    
    62   30   31 2    
    63   30   32 1    
    64   32   33 1    
    65   32   34 1    
    66   32  100 1    
    67   33  101 1    
    68   33  102 1    
    69   33  103 1    
    70   34   35 am   BACKBONE|DICT|INTERRES
    71   34  104 1    
    72   35   36 2    
    73   37   38 2    
    74   37   39 am   BACKBONE|DICT|INTERRES
    75   39   40 1    
    76   39  105 1    
    77   40   41 1    
    78   40   42 1    
    79   40  106 1    
    80   41  107 1    
    81   41  108 1    
    82   41  109 1    
    83   42   43 2    
    84   42   44 am   BACKBONE|DICT|INTERRES
    85   44   45 1    
    86   44  110 1    
    87   45   46 1    
    88   45   47 1    
    89   45  111 1    
    90   46  112 1    
    91   46  113 1    
    92   46  114 1    
    93   47   48 2    
    94   47   49 am   BACKBONE|DICT|INTERRES
    95   49   50 1    
    96   49  115 1    
    97   50   51 1    
    98   50   52 1    
    99   50  116 1    
   100   51  117 1    
   101   51  118 1    
   102   51  119 1    
   103   52   53 2    
   104   52   54 am   BACKBONE|DICT|INTERRES
   105   54   55 1    
   106   54  120 1    
   107   55   56 1    
   108   55   57 1    
   109   55  121 1    
   110   56  122 1    
   111   56  123 1    
   112   56  124 1    
   113   57   58 2    
   114   57   59 am   BACKBONE|DICT|INTERRES
   115   59   60 1    
   116   59  125 1    
   117   60   61 1    
   118   60   62 1    
   119   60  126 1    
   120   61  127 1    
   121   61  128 1    
   122   61  129 1    
   123   62   63 2    
   124   62   64 am   BACKBONE|DICT|INTERRES
   125   64   65 1    
   126   64  130 1    
   127   65   66 1    
   128   65   69 1    
   129   65  131 1    
   130   66   67 am   BACKBONE|DICT|INTERRES
   131   66   68 2    
   132   67  132 1    
   133   67  133 1    
   134   69   70 1    
   135   69  134 1    
   136   69  135 1    
   137   70   71 1    
   138   71  136 1    
   139   71  137 1    
@<TRIPOS>SUBSTRUCTURE
     1 UNK         1 GROUP             0       ****    0 ROOT    
