@<TRIPOS>MOLECULE
3R136
137   139    1
SMALL
USER_CHARGES


@<TRIPOS>ATOM
      1 CA         26.6468   18.6665   -0.5041 C.3       0 UNK        -0.1979 
      2 C          27.8873   19.5476   -0.5185 C.2       0 UNK         0.4864 
      3 O          28.8578   19.2262   -1.2064 O.2       0 UNK        -0.5359 
      4 N          27.8664   20.6500    0.2414 N.am      1 UNK        -0.4318 
      5 CA         28.9470   21.6374    0.3234 C.3       1 UNK         0.0824 
      6 C6         28.7245   22.6388    1.4868 C.3       12 UNK        -0.0944 
      7 S7         28.6941   21.8099    3.1085 S.3       12 UNK        -0.2672 
      8 C8         30.0437   22.6616    3.9918 C.3       12 UNK         0.0333 
      9 C9         29.6744   24.0710    4.4478 C.ar      12 UNK        -0.0807 
     10 C10        30.5500   25.1378    4.2164 C.ar      12 UNK        -0.0894 
     11 C11        30.2630   26.4149    4.7111 C.ar      12 UNK        -0.0804 
     12 C12        29.0856   26.6212    5.4347 C.ar      12 UNK        -0.0824 
     13 C13        28.1789   25.5764    5.6367 C.ar      12 UNK        -0.0762 
     14 C14        28.4878   24.3016    5.1535 C.ar      12 UNK        -0.0782 
     15 C15        26.8773   25.8100    6.3968 C.3       12 UNK         0.0230 
     16 S16        25.9235   27.2367    5.7738 S.3       12 UNK        -0.2608 
     17 C17        25.5721   26.7569    4.0456 C.3       12 UNK        -0.0989 
     18 CA         26.5018   27.4755    3.0268 C.3       5 UNK         0.0716 
     19 N          26.7359   26.6838    1.8168 N.am      5 UNK        -0.4135 
     20 C          25.8524   26.4277    0.8413 C.2       4 UNK         0.5031 
     21 O          24.6470   26.6633    0.9366 O.2       4 UNK        -0.5229 
     22 CA         26.4048   25.8382   -0.4768 C.3       4 UNK         0.0329 
     23 CB         25.7774   26.5253   -1.7076 C.3       4 UNK        -0.2001 
     24 N          27.8728   25.8332   -0.6011 N.am      4 UNK        -0.4303 
     25 C          28.7134   26.8818   -0.5461 C.2       3 UNK         0.5044 
     26 O          28.3455   28.0378   -0.3343 O.2       3 UNK        -0.5152 
     27 CA         30.2241   26.5974   -0.6506 C.3       3 UNK         0.0319 
     28 CB         30.8657   26.7296    0.7401 C.3       3 UNK        -0.2001 
     29 N          30.5464   25.2704   -1.1743 N.am      3 UNK        -0.4354 
     30 C          30.3906   24.8649   -2.4423 C.2       2 UNK         0.4964 
     31 O          30.0511   25.6035   -3.3663 O.2       2 UNK        -0.5047 
     32 CA         30.6106   23.3617   -2.7039 C.3       2 UNK         0.0288 
     33 CB         32.0582   23.0957   -3.1476 C.3       2 UNK        -0.2113 
     34 N          30.2944   22.5249   -1.5363 N.am      2 UNK        -0.4145 
     35 C          29.0691   22.4097   -1.0023 C.2       1 UNK         0.5006 
     36 O          28.0671   22.9538   -1.4722 O.2       1 UNK        -0.5103 
     37 C          26.0960   28.9360    2.6974 C.2       5 UNK         0.5055 
     38 O          25.2803   29.5272    3.4077 O.2       5 UNK        -0.5220 
     39 N          26.6603   29.4948    1.6123 N.am      6 UNK        -0.4450 
     40 CA         26.3879   30.8582    1.1486 C.3       6 UNK         0.0367 
     41 CB         26.9392   31.0373   -0.2750 C.3       6 UNK        -0.1929 
     42 C          26.9545   31.9355    2.0884 C.2       6 UNK         0.5070 
     43 O          26.2849   32.9404    2.3303 O.2       6 UNK        -0.5237 
     44 N          28.1647   31.7020    2.6083 N.am      7 UNK        -0.4739 
     45 CA         28.8686   32.5563    3.5600 C.3       7 UNK         0.0276 
     46 CB         29.4062   33.8199    2.8591 C.3       7 UNK        -0.1927 
     47 C          30.0265   31.7532    4.1562 C.2       7 UNK         0.5013 
     48 O          30.5809   30.8923    3.4686 O.2       7 UNK        -0.5193 
     49 N          30.4182   32.0852    5.3940 N.am      8 UNK        -0.4253 
     50 CA         31.5585   31.4798    6.0959 C.3       8 UNK         0.0242 
     51 CB         31.6118   32.0022    7.5398 C.3       8 UNK        -0.2000 
     52 C          32.9069   31.7101    5.3902 C.2       8 UNK         0.4948 
     53 O          33.7906   30.8585    5.4747 O.2       8 UNK        -0.5275 
     54 N          33.0260   32.8241    4.6537 N.am      9 UNK        -0.4246 
     55 CA         34.1823   33.1725    3.8221 C.3       9 UNK         0.0261 
     56 CB         33.9675   34.5758    3.2316 C.3       9 UNK        -0.1959 
     57 C          34.4888   32.1598    2.7001 C.2       9 UNK         0.5033 
     58 O          35.6230   32.1289    2.2211 O.2       9 UNK        -0.5390 
     59 N          33.4964   31.3472    2.3077 N.am      10 UNK        -0.4215 
     60 CA         33.6420   30.2828    1.3151 C.3       10 UNK         0.0240 
     61 CB         32.2785   30.0357    0.6495 C.3       10 UNK        -0.1982 
     62 C          34.2323   28.9771    1.8870 C.2       10 UNK         0.4970 
     63 O          34.5205   28.0781    1.0958 O.2       10 UNK        -0.4916 
     64 N          34.4080   28.8756    3.2131 N.am      11 UNK        -0.4279 
     65 CA         34.9849   27.7001    3.8899 C.3       11 UNK         0.1003 
     66 C          36.0340   28.0386    4.9848 C.2       11 UNK         0.5709 
     67 N          36.0499   29.2339    5.5597 N.am      11 UNK        -0.7358 
     68 O          36.8781   27.2022    5.2988 O.2       11 UNK        -0.4999 
     69 C69        33.8984   26.7116    4.3930 C.3       12 UNK        -0.0954 
     70 S70        32.6876   27.4734    5.5316 S.3       12 UNK        -0.2268 
     71 C71        31.2133   27.5800    4.4731 C.3       12 UNK         0.0203 
     72 H72        26.2301   18.5892   -1.5079 H         1 UNK         0.0888 
     73 H73        26.9025   17.6639   -0.1623 H         1 UNK         0.0888 
     74 H74        25.8735   19.0620    0.1544 H         1 UNK         0.0888 
     75 H75        27.0422   20.8646    0.7838 H         1 UNK         0.3017 
     76 H76        29.8802   21.0986    0.5028 H         1 UNK         0.0873 
     77 H77        29.5051   23.4020    1.4931 H         1 UNK         0.0745 
     78 H78        27.7808   23.1750    1.3653 H         1 UNK         0.0745 
     79 H79        30.3016   22.0747    4.8742 H         1 UNK         0.0705 
     80 H80        30.9344   22.6713    3.3616 H         1 UNK         0.0705 
     81 H81        31.4694   24.9693    3.6741 H         1 UNK         0.1334 
     82 H82        28.8606   27.6042    5.8257 H         1 UNK         0.1417 
     83 H83        27.8082   23.4799    5.3347 H         1 UNK         0.1562 
     84 H84        27.1128   25.9786    7.4484 H         1 UNK         0.0748 
     85 H85        26.2412   24.9241    6.3627 H         1 UNK         0.0748 
     86 H86        24.5214   26.9517    3.8223 H         1 UNK         0.0940 
     87 H87        25.6904   25.6752    3.9636 H         1 UNK         0.0940 
     88 H88        27.4895   27.5623    3.4770 H         1 UNK         0.0703 
     89 H89        27.6982   26.4391    1.6396 H         1 UNK         0.3081 
     90 H90        26.0981   24.7913   -0.4882 H         1 UNK         0.0719 
     91 H91        24.6920   26.4182   -1.7096 H         1 UNK         0.0809 
     92 H92        25.9987   27.5930   -1.7302 H         1 UNK         0.0809 
     93 H93        26.1449   26.0867   -2.6353 H         1 UNK         0.0809 
     94 H94        28.2657   24.9222   -0.8070 H         1 UNK         0.2990 
     95 H95        30.6551   27.3520   -1.3118 H         1 UNK         0.0690 
     96 H96        30.5545   25.9255    1.4070 H         1 UNK         0.0788 
     97 H97        30.5776   27.6661    1.2163 H         1 UNK         0.0788 
     98 H98        31.9543   26.7159    0.6805 H         1 UNK         0.0788 
     99 H99        30.8745   24.5924   -0.5032 H         1 UNK         0.2993 
    100 H100       29.9412   23.0709   -3.5168 H         1 UNK         0.0949 
    101 H101       32.3106   23.6879   -4.0285 H         1 UNK         0.0767 
    102 H102       32.7755   23.3513   -2.3666 H         1 UNK         0.0767 
    103 H103       32.2062   22.0481   -3.4112 H         1 UNK         0.0767 
    104 H104       31.0670   22.0355   -1.1067 H         1 UNK         0.3013 
    105 H105       27.2949   28.9439    1.0391 H         1 UNK         0.3121 
    106 H106       25.3043   30.9892    1.1098 H         1 UNK         0.0774 
    107 H107       28.0207   30.8989   -0.3102 H         1 UNK         0.0815 
    108 H108       26.7246   32.0372   -0.6542 H         1 UNK         0.0815 
    109 H109       26.4899   30.3240   -0.9664 H         1 UNK         0.0815 
    110 H110       28.6571   30.8485    2.3738 H         1 UNK         0.2987 
    111 H111       28.1795   32.8372    4.3595 H         1 UNK         0.0949 
    112 H112       30.0843   33.5678    2.0424 H         1 UNK         0.0806 
    113 H113       28.5992   34.4251    2.4464 H         1 UNK         0.0806 
    114 H114       29.9547   34.4545    3.5561 H         1 UNK         0.0806 
    115 H115       29.9148   32.8082    5.8889 H         1 UNK         0.3010 
    116 H116       31.3933   30.4010    6.1300 H         1 UNK         0.0829 
    117 H117       32.4391   31.5477    8.0873 H         1 UNK         0.0813 
    118 H118       31.7525   33.0833    7.5754 H         1 UNK         0.0813 
    119 H119       30.6975   31.7628    8.0831 H         1 UNK         0.0813 
    120 H120       32.2511   33.4706    4.6450 H         1 UNK         0.3038 
    121 H121       35.0575   33.2034    4.4745 H         1 UNK         0.0769 
    122 H122       33.0870   34.6130    2.5887 H         1 UNK         0.0811 
    123 H123       34.8239   34.8811    2.6284 H         1 UNK         0.0811 
    124 H124       33.8448   35.3234    4.0155 H         1 UNK         0.0811 
    125 H125       32.5930   31.4132    2.7637 H         1 UNK         0.3204 
    126 H126       34.3293   30.6225    0.5373 H         1 UNK         0.0748 
    127 H127       32.3477   29.2657   -0.1200 H         1 UNK         0.0771 
    128 H128       31.5333   29.7118    1.3740 H         1 UNK         0.0771 
    129 H129       31.9028   30.9388    0.1684 H         1 UNK         0.0771 
    130 H130       34.1516   29.6466    3.8178 H         1 UNK         0.2980 
    131 H131       35.5720   27.1513    3.1511 H         1 UNK         0.0545 
    132 H132       36.7540   29.4279    6.2529 H         1 UNK         0.3459 
    133 H133       35.2844   29.8913    5.4284 H         1 UNK         0.3459 
    134 H134       33.3790   26.2867    3.5341 H         1 UNK         0.0616 
    135 H135       34.3569   25.8612    4.9008 H         1 UNK         0.0616 
    136 H136       31.5006   27.6331    3.4235 H         1 UNK         0.0634 
    137 H137       30.7092   28.5221    4.6887 H         1 UNK         0.0634 
@<TRIPOS>BOND
     1    1    2 1    
     2    1   72 1    
     3    1   73 1    
     4    1   74 1    
     5    2    3 2    
     6    2    4 am   BACKBONE|DICT|INTERRES
     7    4    5 1    
     8    4   75 1    
     9    5    6 1    
    10    5   35 1    
    11    5   76 1    
    12    6    7 1    
    13    6   77 1    
    14    6   78 1    
    15    7    8 1    
    16    8    9 1    
    17    8   79 1    
    18    8   80 1    
    19    9   10 ar   
    20    9   14 ar   
    21   10   11 ar   
    22   10   81 1    
    23   11   12 ar   
    24   11   71 1    
    25   12   13 ar   
    26   12   82 1    
    27   13   14 ar   
    28   13   15 1    
    29   14   83 1    
    30   15   16 1    
    31   15   84 1    
    32   15   85 1    
    33   16   17 1    
    34   17   18 1    
    35   17   86 1    
    36   17   87 1    
    37   18   19 1    
    38   18   37 1    
    39   18   88 1    
    40   19   20 am   BACKBONE|DICT|INTERRES
    41   19   89 1    
    42   20   21 2    
    43   20   22 1    
    44   22   23 1    
    45   22   24 1    
    46   22   90 1    
    47   23   91 1    
    48   23   92 1    
    49   23   93 1    
    50   24   25 am   BACKBONE|DICT|INTERRES
    51   24   94 1    
    52   25   26 2    
    53   25   27 1    
    54   27   28 1    
    55   27   29 1    
    56   27   95 1    
    57   28   96 1    
    58   28   97 1    
    59   28   98 1    
    60   29   30 am   BACKBONE|DICT|INTERRES
    61   29   99 1    
    62   30   31 2    
    63   30   32 1    
    64   32   33 1    
    65   32   34 1    
    66   32  100 1    
    67   33  101 1    
    68   33  102 1    
    69   33  103 1    
    70   34   35 am   BACKBONE|DICT|INTERRES
    71   34  104 1    
    72   35   36 2    
    73   37   38 2    
    74   37   39 am   BACKBONE|DICT|INTERRES
    75   39   40 1    
    76   39  105 1    
    77   40   41 1    
    78   40   42 1    
    79   40  106 1    
    80   41  107 1    
    81   41  108 1    
    82   41  109 1    
    83   42   43 2    
    84   42   44 am   BACKBONE|DICT|INTERRES
    85   44   45 1    
    86   44  110 1    
    87   45   46 1    
    88   45   47 1    
    89   45  111 1    
    90   46  112 1    
    91   46  113 1    
    92   46  114 1    
    93   47   48 2    
    94   47   49 am   BACKBONE|DICT|INTERRES
    95   49   50 1    
    96   49  115 1    
    97   50   51 1    
    98   50   52 1    
    99   50  116 1    
   100   51  117 1    
   101   51  118 1    
   102   51  119 1    
   103   52   53 2    
   104   52   54 am   BACKBONE|DICT|INTERRES
   105   54   55 1    
   106   54  120 1    
   107   55   56 1    
   108   55   57 1    
   109   55  121 1    
   110   56  122 1    
   111   56  123 1    
   112   56  124 1    
   113   57   58 2    
   114   57   59 am   BACKBONE|DICT|INTERRES
   115   59   60 1    
   116   59  125 1    
   117   60   61 1    
   118   60   62 1    
   119   60  126 1    
   120   61  127 1    
   121   61  128 1    
   122   61  129 1    
   123   62   63 2    
   124   62   64 am   BACKBONE|DICT|INTERRES
   125   64   65 1    
   126   64  130 1    
   127   65   66 1    
   128   65   69 1    
   129   65  131 1    
   130   66   67 am   BACKBONE|DICT|INTERRES
   131   66   68 2    
   132   67  132 1    
   133   67  133 1    
   134   69   70 1    
   135   69  134 1    
   136   69  135 1    
   137   70   71 1    
   138   71  136 1    
   139   71  137 1    
@<TRIPOS>SUBSTRUCTURE
     1 UNK         1 GROUP             0       ****    0 ROOT    
