@<TRIPOS>MOLECULE
3R136
137   139    1
SMALL
USER_CHARGES


@<TRIPOS>ATOM
      1 CA         35.2950   22.1831   -0.8317 C.3       0 UNK        -0.1979 
      2 C          34.1172   23.0219   -0.3582 C.2       0 UNK         0.4864 
      3 O          34.2128   24.2498   -0.3335 O.2       0 UNK        -0.5359 
      4 N          33.0102   22.3698    0.0224 N.am      1 UNK        -0.4318 
      5 CA         31.7666   23.0140    0.4548 C.3       1 UNK         0.0824 
      6 C6         30.7882   21.9803    1.0636 C.3       12 UNK        -0.0944 
      7 S7         29.4960   22.7844    2.0607 S.3       12 UNK        -0.2672 
      8 C8         30.2622   22.7266    3.7085 C.3       12 UNK         0.0333 
      9 C9         29.6020   23.7338    4.6321 C.ar      12 UNK        -0.0807 
     10 C10        30.2596   24.9193    4.9697 C.ar      12 UNK        -0.0894 
     11 C11        29.6336   25.8756    5.7757 C.ar      12 UNK        -0.0804 
     12 C12        28.3391   25.6328    6.2481 C.ar      12 UNK        -0.0824 
     13 C13        27.6750   24.4474    5.9172 C.ar      12 UNK        -0.0762 
     14 C14        28.3167   23.4958    5.1215 C.ar      12 UNK        -0.0782 
     15 C15        26.2520   24.1959    6.3856 C.3       12 UNK         0.0230 
     16 S16        25.0744   24.3808    5.0100 S.3       12 UNK        -0.2608 
     17 C17        25.0489   26.1925    4.7809 C.3       12 UNK        -0.0989 
     18 CA         25.9460   26.7225    3.6196 C.3       5 UNK         0.0716 
     19 N          25.7714   26.0438    2.3267 N.am      5 UNK        -0.4135 
     20 C          24.6217   25.7735    1.6940 C.2       4 UNK         0.5031 
     21 O          23.5076   26.0938    2.1122 O.2       4 UNK        -0.5229 
     22 CA         24.7633   25.0593    0.3319 C.3       4 UNK         0.0329 
     23 CB         23.4043   24.8203   -0.3601 C.3       4 UNK        -0.2001 
     24 N          25.6827   25.7483   -0.5869 N.am      4 UNK        -0.4303 
     25 C          25.6446   27.0443   -0.9337 C.2       3 UNK         0.5044 
     26 O          24.8116   27.8362   -0.4942 O.2       3 UNK        -0.5152 
     27 CA         26.6998   27.5534   -1.9374 C.3       3 UNK         0.0319 
     28 CB         27.0069   29.0525   -1.7421 C.3       3 UNK        -0.2001 
     29 N          27.9573   26.7955   -1.9972 N.am      3 UNK        -0.4354 
     30 C          28.8036   26.5061   -0.9975 C.2       2 UNK         0.4964 
     31 O          28.5698   26.6964    0.1983 O.2       2 UNK        -0.5047 
     32 CA         30.1641   25.9580   -1.4439 C.3       2 UNK         0.0288 
     33 CB         31.1606   27.1095   -1.6608 C.3       2 UNK        -0.2113 
     34 N          30.7175   25.0454   -0.4478 N.am      2 UNK        -0.4145 
     35 C          31.1230   23.7972   -0.7090 C.2       1 UNK         0.5006 
     36 O          31.0131   23.2512   -1.8114 O.2       1 UNK        -0.5103 
     37 C          25.8613   28.2646    3.5350 C.2       5 UNK         0.5055 
     38 O          26.1283   28.9153    4.5462 O.2       5 UNK        -0.5220 
     39 N          25.5097   28.8460    2.3758 N.am      6 UNK        -0.4450 
     40 CA         25.3815   30.3008    2.1997 C.3       6 UNK         0.0367 
     41 CB         24.3571   30.5977    1.0915 C.3       6 UNK        -0.1929 
     42 C          26.7175   31.0146    1.9110 C.2       6 UNK         0.5070 
     43 O          26.7249   32.2416    1.7969 O.2       6 UNK        -0.5237 
     44 N          27.8129   30.2561    1.7730 N.am      7 UNK        -0.4739 
     45 CA         29.1697   30.7639    1.5583 C.3       7 UNK         0.0276 
     46 CB         30.0357   29.6210    1.0010 C.3       7 UNK        -0.1927 
     47 C          29.7840   31.3848    2.8303 C.2       7 UNK         0.5013 
     48 O          29.1750   31.3588    3.9028 O.2       7 UNK        -0.5193 
     49 N          30.9899   31.9412    2.6806 N.am      8 UNK        -0.4253 
     50 CA         31.7674   32.5815    3.7384 C.3       8 UNK         0.0242 
     51 CB         31.4779   34.0952    3.7298 C.3       8 UNK        -0.2000 
     52 C          33.2579   32.2838    3.5236 C.2       8 UNK         0.4948 
     53 O          33.6173   31.6235    2.5423 O.2       8 UNK        -0.5275 
     54 N          34.0962   32.7795    4.4462 N.am      9 UNK        -0.4246 
     55 CA         35.5548   32.6231    4.4932 C.3       9 UNK         0.0261 
     56 CB         36.2319   33.3716    3.3210 C.3       9 UNK        -0.1959 
     57 C          35.9438   31.1386    4.6060 C.2       9 UNK         0.5033 
     58 O          35.7670   30.5575    5.6780 O.2       9 UNK        -0.5390 
     59 N          36.4312   30.5465    3.5074 N.am      10 UNK        -0.4215 
     60 CA         36.7209   29.1149    3.3908 C.3       10 UNK         0.0240 
     61 CB         37.5192   28.8622    2.1013 C.3       10 UNK        -0.1982 
     62 C          35.4578   28.2332    3.4242 C.2       10 UNK         0.4970 
     63 O          35.5525   27.0772    3.8371 O.2       10 UNK        -0.4916 
     64 N          34.3123   28.7879    2.9984 N.am      11 UNK        -0.4279 
     65 CA         32.9863   28.1477    2.9931 C.3       11 UNK         0.1003 
     66 C          32.8306   26.9446    2.0084 C.2       11 UNK         0.5709 
     67 N          33.7647   26.7260    1.0906 N.am      11 UNK        -0.7358 
     68 O          31.8431   26.2157    2.0535 O.2       11 UNK        -0.4999 
     69 C69        32.4911   27.8446    4.4382 C.3       12 UNK        -0.0954 
     70 S70        30.7158   28.1871    4.6735 S.3       12 UNK        -0.2268 
     71 C71        30.3500   27.1696    6.1385 C.3       12 UNK         0.0203 
     72 H72        35.5461   22.4382   -1.8608 H         1 UNK         0.0888 
     73 H73        36.1678   22.3780   -0.2091 H         1 UNK         0.0888 
     74 H74        35.0794   21.1156   -0.7893 H         1 UNK         0.0888 
     75 H75        32.9809   21.3631   -0.0502 H         1 UNK         0.3017 
     76 H76        32.0462   23.7228    1.2368 H         1 UNK         0.0873 
     77 H77        30.3149   21.3769    0.2862 H         1 UNK         0.0745 
     78 H78        31.3246   21.2752    1.7011 H         1 UNK         0.0745 
     79 H79        30.1697   21.7209    4.1211 H         1 UNK         0.0705 
     80 H80        31.3303   22.9347    3.6247 H         1 UNK         0.0705 
     81 H81        31.2504   25.1078    4.5823 H         1 UNK         0.1334 
     82 H82        27.8419   26.3726    6.8607 H         1 UNK         0.1417 
     83 H83        27.7989   22.5859    4.8488 H         1 UNK         0.1562 
     84 H84        25.9793   24.8638    7.2042 H         1 UNK         0.0748 
     85 H85        26.1765   23.1819    6.7813 H         1 UNK         0.0748 
     86 H86        25.3379   26.6620    5.7230 H         1 UNK         0.0940 
     87 H87        24.0104   26.4884    4.6240 H         1 UNK         0.0940 
     88 H88        26.9809   26.5141    3.8936 H         1 UNK         0.0703 
     89 H89        26.6328   25.7810    1.8656 H         1 UNK         0.3081 
     90 H90        25.2031   24.0831    0.5422 H         1 UNK         0.0719 
     91 H91        22.8984   25.7586   -0.5911 H         1 UNK         0.0809 
     92 H92        23.5247   24.2665   -1.2911 H         1 UNK         0.0809 
     93 H93        22.7374   24.2392    0.2780 H         1 UNK         0.0809 
     94 H94        26.4221   25.1835   -0.9805 H         1 UNK         0.2990 
     95 H95        26.2405   27.4422   -2.9206 H         1 UNK         0.0690 
     96 H96        27.7479   29.4062   -2.4588 H         1 UNK         0.0788 
     97 H97        27.3859   29.2526   -0.7416 H         1 UNK         0.0788 
     98 H98        26.1125   29.6610   -1.8800 H         1 UNK         0.0788 
     99 H99        28.2534   26.5580   -2.9343 H         1 UNK         0.2993 
    100 H100       30.0231   25.4425   -2.3964 H         1 UNK         0.0949 
    101 H101       30.7767   27.8382   -2.3760 H         1 UNK         0.0767 
    102 H102       31.3708   27.6394   -0.7315 H         1 UNK         0.0767 
    103 H103       32.1093   26.7396   -2.0505 H         1 UNK         0.0767 
    104 H104       30.8089   25.4186    0.4940 H         1 UNK         0.3013 
    105 H105       25.2841   28.2716    1.5706 H         1 UNK         0.3121 
    106 H106       24.9890   30.7281    3.1250 H         1 UNK         0.0774 
    107 H107       24.1048   31.6586    1.0716 H         1 UNK         0.0815 
    108 H108       24.7439   30.3439    0.1051 H         1 UNK         0.0815 
    109 H109       23.4289   30.0466    1.2433 H         1 UNK         0.0815 
    110 H110       27.7205   29.2610    1.9124 H         1 UNK         0.2987 
    111 H111       29.1216   31.5546    0.8061 H         1 UNK         0.0949 
    112 H112       29.6454   29.2685    0.0475 H         1 UNK         0.0806 
    113 H113       31.0619   29.9392    0.8168 H         1 UNK         0.0806 
    114 H114       30.0670   28.7685    1.6807 H         1 UNK         0.0806 
    115 H115       31.4796   31.8550    1.7993 H         1 UNK         0.3010 
    116 H116       31.4888   32.1609    4.7074 H         1 UNK         0.0829 
    117 H117       30.4132   34.2936    3.8557 H         1 UNK         0.0813 
    118 H118       31.9944   34.6083    4.5415 H         1 UNK         0.0813 
    119 H119       31.7943   34.5592    2.7946 H         1 UNK         0.0813 
    120 H120       33.6950   33.2760    5.2298 H         1 UNK         0.3038 
    121 H121       35.8900   33.0961    5.4177 H         1 UNK         0.0769 
    122 H122       35.9042   33.0135    2.3447 H         1 UNK         0.0811 
    123 H123       37.3173   33.2710    3.3651 H         1 UNK         0.0811 
    124 H124       36.0108   34.4381    3.3648 H         1 UNK         0.0811 
    125 H125       36.5178   31.1023    2.6685 H         1 UNK         0.3204 
    126 H126       37.3433   28.8268    4.2407 H         1 UNK         0.0748 
    127 H127       38.4580   29.4166    2.1009 H         1 UNK         0.0771 
    128 H128       37.7698   27.8053    1.9983 H         1 UNK         0.0771 
    129 H129       36.9569   29.1522    1.2127 H         1 UNK         0.0771 
    130 H130       34.3200   29.7552    2.6898 H         1 UNK         0.2980 
    131 H131       32.3433   28.9232    2.5805 H         1 UNK         0.0545 
    132 H132       33.7088   25.9095    0.4894 H         1 UNK         0.3459 
    133 H133       34.5752   27.3195    1.0443 H         1 UNK         0.3459 
    134 H134       32.7302   26.8204    4.7264 H         1 UNK         0.0616 
    135 H135       33.0119   28.4776    5.1587 H         1 UNK         0.0616 
    136 H136       31.2675   26.9406    6.6822 H         1 UNK         0.0634 
    137 H137       29.7381   27.7661    6.8166 H         1 UNK         0.0634 
@<TRIPOS>BOND
     1    1    2 1    
     2    1   72 1    
     3    1   73 1    
     4    1   74 1    
     5    2    3 2    
     6    2    4 am   BACKBONE|DICT|INTERRES
     7    4    5 1    
     8    4   75 1    
     9    5    6 1    
    10    5   35 1    
    11    5   76 1    
    12    6    7 1    
    13    6   77 1    
    14    6   78 1    
    15    7    8 1    
    16    8    9 1    
    17    8   79 1    
    18    8   80 1    
    19    9   10 ar   
    20    9   14 ar   
    21   10   11 ar   
    22   10   81 1    
    23   11   12 ar   
    24   11   71 1    
    25   12   13 ar   
    26   12   82 1    
    27   13   14 ar   
    28   13   15 1    
    29   14   83 1    
    30   15   16 1    
    31   15   84 1    
    32   15   85 1    
    33   16   17 1    
    34   17   18 1    
    35   17   86 1    
    36   17   87 1    
    37   18   19 1    
    38   18   37 1    
    39   18   88 1    
    40   19   20 am   BACKBONE|DICT|INTERRES
    41   19   89 1    
    42   20   21 2    
    43   20   22 1    
    44   22   23 1    
    45   22   24 1    
    46   22   90 1    
    47   23   91 1    
    48   23   92 1    
    49   23   93 1    
    50   24   25 am   BACKBONE|DICT|INTERRES
    51   24   94 1    
    52   25   26 2    
    53   25   27 1    
    54   27   28 1    
    55   27   29 1    
    56   27   95 1    
    57   28   96 1    
    58   28   97 1    
    59   28   98 1    
    60   29   30 am   BACKBONE|DICT|INTERRES
    61   29   99 1    
    62   30   31 2    
    63   30   32 1    
    64   32   33 1    
    65   32   34 1    
    66   32  100 1    
    67   33  101 1    
    68   33  102 1    
    69   33  103 1    
    70   34   35 am   BACKBONE|DICT|INTERRES
    71   34  104 1    
    72   35   36 2    
    73   37   38 2    
    74   37   39 am   BACKBONE|DICT|INTERRES
    75   39   40 1    
    76   39  105 1    
    77   40   41 1    
    78   40   42 1    
    79   40  106 1    
    80   41  107 1    
    81   41  108 1    
    82   41  109 1    
    83   42   43 2    
    84   42   44 am   BACKBONE|DICT|INTERRES
    85   44   45 1    
    86   44  110 1    
    87   45   46 1    
    88   45   47 1    
    89   45  111 1    
    90   46  112 1    
    91   46  113 1    
    92   46  114 1    
    93   47   48 2    
    94   47   49 am   BACKBONE|DICT|INTERRES
    95   49   50 1    
    96   49  115 1    
    97   50   51 1    
    98   50   52 1    
    99   50  116 1    
   100   51  117 1    
   101   51  118 1    
   102   51  119 1    
   103   52   53 2    
   104   52   54 am   BACKBONE|DICT|INTERRES
   105   54   55 1    
   106   54  120 1    
   107   55   56 1    
   108   55   57 1    
   109   55  121 1    
   110   56  122 1    
   111   56  123 1    
   112   56  124 1    
   113   57   58 2    
   114   57   59 am   BACKBONE|DICT|INTERRES
   115   59   60 1    
   116   59  125 1    
   117   60   61 1    
   118   60   62 1    
   119   60  126 1    
   120   61  127 1    
   121   61  128 1    
   122   61  129 1    
   123   62   63 2    
   124   62   64 am   BACKBONE|DICT|INTERRES
   125   64   65 1    
   126   64  130 1    
   127   65   66 1    
   128   65   69 1    
   129   65  131 1    
   130   66   67 am   BACKBONE|DICT|INTERRES
   131   66   68 2    
   132   67  132 1    
   133   67  133 1    
   134   69   70 1    
   135   69  134 1    
   136   69  135 1    
   137   70   71 1    
   138   71  136 1    
   139   71  137 1    
@<TRIPOS>SUBSTRUCTURE
     1 UNK         1 GROUP             0       ****    0 ROOT    
