@<TRIPOS>MOLECULE
3R136
137   139    1
SMALL
USER_CHARGES


@<TRIPOS>ATOM
      1 CA         32.2729   23.9247   -1.3816 C.3       0 UNK        -0.1979 
      2 C          31.3721   23.6647   -0.1855 C.2       0 UNK         0.4864 
      3 O          30.8504   24.6071    0.4096 O.2       0 UNK        -0.5359 
      4 N          31.1554   22.3856    0.1479 N.am      1 UNK        -0.4318 
      5 CA         30.3310   21.9092    1.2675 C.3       1 UNK         0.0824 
      6 C6         30.8369   20.5196    1.7520 C.3       12 UNK        -0.0944 
      7 S7         30.3655   20.1093    3.4690 S.3       12 UNK        -0.2672 
      8 C8         31.8527   20.5964    4.4064 C.3       12 UNK         0.0333 
      9 C9         32.1074   22.0959    4.3374 C.ar      12 UNK        -0.0807 
     10 C10        33.3231   22.5883    3.8543 C.ar      12 UNK        -0.0894 
     11 C11        33.5477   23.9662    3.7663 C.ar      12 UNK        -0.0804 
     12 C12        32.5336   24.8556    4.1379 C.ar      12 UNK        -0.0824 
     13 C13        31.3127   24.3713    4.6213 C.ar      12 UNK        -0.0762 
     14 C14        31.1182   22.9941    4.7456 C.ar      12 UNK        -0.0782 
     15 C15        30.1864   25.3211    4.9913 C.3       12 UNK         0.0230 
     16 S16        28.8386   25.2209    3.7708 S.3       12 UNK        -0.2608 
     17 C17        27.7861   26.6083    4.3085 C.3       12 UNK        -0.0989 
     18 CA         28.2644   27.9475    3.7039 C.3       5 UNK         0.0716 
     19 N          28.3513   27.9115    2.2455 N.am      5 UNK        -0.4135 
     20 C          28.9392   28.8444    1.4884 C.2       4 UNK         0.5031 
     21 O          29.5847   29.7853    1.9546 O.2       4 UNK        -0.5229 
     22 CA         28.7612   28.7277   -0.0365 C.3       4 UNK         0.0329 
     23 CB         30.0771   28.2981   -0.6991 C.3       4 UNK        -0.2001 
     24 N          27.7016   27.8045   -0.4583 N.am      4 UNK        -0.4303 
     25 C          26.3927   27.9145   -0.1999 C.2       3 UNK         0.5044 
     26 O          25.9101   28.8113    0.4915 O.2       3 UNK        -0.5152 
     27 CA         25.4725   26.8169   -0.7653 C.3       3 UNK         0.0319 
     28 CB         25.3409   26.9338   -2.2967 C.3       3 UNK        -0.2001 
     29 N          25.8257   25.4462   -0.3576 N.am      3 UNK        -0.4354 
     30 C          26.9354   24.7466   -0.6374 C.2       2 UNK         0.4964 
     31 O          27.8816   25.1772   -1.3016 O.2       2 UNK        -0.5047 
     32 CA         26.9896   23.3099   -0.1110 C.3       2 UNK         0.0288 
     33 CB         26.5169   22.3301   -1.2043 C.3       2 UNK        -0.2113 
     34 N          28.3656   23.0305    0.2896 N.am      2 UNK        -0.4145 
     35 C          28.8135   21.9532    0.9444 C.2       1 UNK         0.5006 
     36 O          28.0792   21.0196    1.2744 O.2       1 UNK        -0.5103 
     37 C          27.4152   29.1325    4.2023 C.2       5 UNK         0.5055 
     38 O          27.7788   29.7462    5.2075 O.2       5 UNK        -0.5220 
     39 N          26.3462   29.4726    3.4624 N.am      6 UNK        -0.4450 
     40 CA         25.4614   30.6074    3.7455 C.3       6 UNK         0.0367 
     41 CB         24.1809   30.4819    2.9049 C.3       6 UNK        -0.1929 
     42 C          26.1281   31.9745    3.5107 C.2       6 UNK         0.5070 
     43 O          25.6744   32.9683    4.0766 O.2       6 UNK        -0.5237 
     44 N          27.2171   32.0037    2.7299 N.am      7 UNK        -0.4739 
     45 CA         28.0715   33.1719    2.5019 C.3       7 UNK         0.0276 
     46 CB         28.6445   33.0961    1.0743 C.3       7 UNK        -0.1927 
     47 C          29.1724   33.2985    3.5776 C.2       7 UNK         0.5013 
     48 O          30.2784   33.7412    3.2667 O.2       7 UNK        -0.5193 
     49 N          28.8470   32.9052    4.8194 N.am      8 UNK        -0.4253 
     50 CA         29.6938   32.8930    6.0167 C.3       8 UNK         0.0242 
     51 CB         30.0552   34.3310    6.4483 C.3       8 UNK        -0.2000 
     52 C          30.9224   31.9779    5.8597 C.2       8 UNK         0.4948 
     53 O          32.0474   32.4119    6.1159 O.2       8 UNK        -0.5275 
     54 N          30.6706   30.7246    5.4467 N.am      9 UNK        -0.4246 
     55 CA         31.6606   29.6610    5.2217 C.3       9 UNK         0.0261 
     56 CB         32.2812   29.1977    6.5573 C.3       9 UNK        -0.1959 
     57 C          32.7122   30.0351    4.1603 C.2       9 UNK         0.5033 
     58 O          33.9130   29.9176    4.4143 O.2       9 UNK        -0.5390 
     59 N          32.2421   30.4806    2.9856 N.am      10 UNK        -0.4215 
     60 CA         33.0984   30.8783    1.8643 C.3       10 UNK         0.0240 
     61 CB         32.2790   31.6818    0.8418 C.3       10 UNK        -0.1982 
     62 C          33.8005   29.6867    1.1910 C.2       10 UNK         0.4970 
     63 O          34.9298   29.8451    0.7267 O.2       10 UNK        -0.4916 
     64 N          33.1283   28.5253    1.1613 N.am      11 UNK        -0.4279 
     65 CA         33.6333   27.2488    0.6224 C.3       11 UNK         0.1003 
     66 C          33.9369   27.2557   -0.9124 C.2       11 UNK         0.5709 
     67 N          33.3947   28.1865   -1.6889 N.am      11 UNK        -0.7358 
     68 O          34.6580   26.4015   -1.4209 O.2       11 UNK        -0.4999 
     69 C69        34.8019   26.6920    1.4887 C.3       12 UNK        -0.0954 
     70 S70        34.8900   24.8665    1.5102 S.3       12 UNK        -0.2268 
     71 C71        34.8969   24.4829    3.2897 C.3       12 UNK         0.0203 
     72 H72        32.2484   23.0967   -2.0896 H         1 UNK         0.0888 
     73 H73        31.9576   24.8261   -1.9069 H         1 UNK         0.0888 
     74 H74        33.3015   24.0628   -1.0511 H         1 UNK         0.0888 
     75 H75        31.5834   21.6598   -0.4093 H         1 UNK         0.3017 
     76 H76        30.4739   22.6181    2.0843 H         1 UNK         0.0873 
     77 H77        30.4817   19.7262    1.0917 H         1 UNK         0.0745 
     78 H78        31.9260   20.4784    1.6948 H         1 UNK         0.0745 
     79 H79        31.7220   20.3082    5.4502 H         1 UNK         0.0705 
     80 H80        32.7103   20.0329    4.0355 H         1 UNK         0.0705 
     81 H81        34.0984   21.8992    3.5480 H         1 UNK         0.1334 
     82 H82        32.6968   25.9207    4.0471 H         1 UNK         0.1417 
     83 H83        30.1730   22.6192    5.1150 H         1 UNK         0.1562 
     84 H84        30.5573   26.3447    5.0497 H         1 UNK         0.0748 
     85 H85        29.8025   25.0708    5.9815 H         1 UNK         0.0748 
     86 H86        27.7823   26.6518    5.3998 H         1 UNK         0.0940 
     87 H87        26.7585   26.3935    4.0088 H         1 UNK         0.0940 
     88 H88        29.2730   28.1196    4.0664 H         1 UNK         0.0703 
     89 H89        27.8903   27.1417    1.7847 H         1 UNK         0.3081 
     90 H90        28.4970   29.7213   -0.4036 H         1 UNK         0.0719 
     91 H91        30.4033   27.3163   -0.3519 H         1 UNK         0.0809 
     92 H92        29.9805   28.2531   -1.7840 H         1 UNK         0.0809 
     93 H93        30.8699   29.0103   -0.4788 H         1 UNK         0.0809 
     94 H94        27.9932   26.9743   -0.9713 H         1 UNK         0.2990 
     95 H95        24.4823   27.0006   -0.3446 H         1 UNK         0.0690 
     96 H96        24.6109   26.2236   -2.6852 H         1 UNK         0.0788 
     97 H97        26.2869   26.7521   -2.8077 H         1 UNK         0.0788 
     98 H98        25.0053   27.9314   -2.5832 H         1 UNK         0.0788 
     99 H99        25.1218   24.9876    0.2053 H         1 UNK         0.2993 
    100 H100       26.3488   23.2206    0.7687 H         1 UNK         0.0949 
    101 H101       26.4783   21.3038   -0.8401 H         1 UNK         0.0767 
    102 H102       25.5134   22.5831   -1.5492 H         1 UNK         0.0767 
    103 H103       27.1760   22.3520   -2.0733 H         1 UNK         0.0767 
    104 H104       29.0303   23.7725    0.0804 H         1 UNK         0.3013 
    105 H105       26.1604   28.9698    2.6011 H         1 UNK         0.3121 
    106 H106       25.1819   30.5589    4.8002 H         1 UNK         0.0774 
    107 H107       24.3889   30.5591    1.8371 H         1 UNK         0.0815 
    108 H108       23.4729   31.2734    3.1545 H         1 UNK         0.0815 
    109 H109       23.6783   29.5310    3.0822 H         1 UNK         0.0815 
    110 H110       27.5500   31.1314    2.3431 H         1 UNK         0.2987 
    111 H111       27.4659   34.0786    2.5667 H         1 UNK         0.0949 
    112 H112       29.2929   32.2302    0.9460 H         1 UNK         0.0806 
    113 H113       27.8498   33.0320    0.3311 H         1 UNK         0.0806 
    114 H114       29.2341   33.9830    0.8384 H         1 UNK         0.0806 
    115 H115       27.9096   32.5495    4.9503 H         1 UNK         0.3010 
    116 H116       29.0905   32.4551    6.8136 H         1 UNK         0.0829 
    117 H117       30.6929   34.8273    5.7160 H         1 UNK         0.0813 
    118 H118       29.1622   34.9411    6.5836 H         1 UNK         0.0813 
    119 H119       30.5927   34.3295    7.3974 H         1 UNK         0.0813 
    120 H120       29.7009   30.4726    5.2800 H         1 UNK         0.3038 
    121 H121       31.1313   28.8054    4.8137 H         1 UNK         0.0769 
    122 H122       32.9391   28.3410    6.4055 H         1 UNK         0.0811 
    123 H123       32.8758   29.9837    7.0239 H         1 UNK         0.0811 
    124 H124       31.5123   28.8925    7.2670 H         1 UNK         0.0811 
    125 H125       31.2384   30.5095    2.8270 H         1 UNK         0.3204 
    126 H126       33.8779   31.5358    2.2556 H         1 UNK         0.0748 
    127 H127       32.9004   31.9956    0.0019 H         1 UNK         0.0771 
    128 H128       31.4495   31.1035    0.4370 H         1 UNK         0.0771 
    129 H129       31.8669   32.5851    1.2919 H         1 UNK         0.0771 
    130 H130       32.2017   28.5007    1.5591 H         1 UNK         0.2980 
    131 H131       32.7918   26.5643    0.7322 H         1 UNK         0.0545 
    132 H132       33.5967   28.1767   -2.6759 H         1 UNK         0.3459 
    133 H133       32.8215   28.9140   -1.2981 H         1 UNK         0.3459 
    134 H134       35.7609   27.0879    1.1501 H         1 UNK         0.0616 
    135 H135       34.6912   27.0412    2.5159 H         1 UNK         0.0616 
    136 H136       35.1992   25.3496    3.8785 H         1 UNK         0.0634 
    137 H137       35.6639   23.7280    3.4689 H         1 UNK         0.0634 
@<TRIPOS>BOND
     1    1    2 1    
     2    1   72 1    
     3    1   73 1    
     4    1   74 1    
     5    2    3 2    
     6    2    4 am   BACKBONE|DICT|INTERRES
     7    4    5 1    
     8    4   75 1    
     9    5    6 1    
    10    5   35 1    
    11    5   76 1    
    12    6    7 1    
    13    6   77 1    
    14    6   78 1    
    15    7    8 1    
    16    8    9 1    
    17    8   79 1    
    18    8   80 1    
    19    9   10 ar   
    20    9   14 ar   
    21   10   11 ar   
    22   10   81 1    
    23   11   12 ar   
    24   11   71 1    
    25   12   13 ar   
    26   12   82 1    
    27   13   14 ar   
    28   13   15 1    
    29   14   83 1    
    30   15   16 1    
    31   15   84 1    
    32   15   85 1    
    33   16   17 1    
    34   17   18 1    
    35   17   86 1    
    36   17   87 1    
    37   18   19 1    
    38   18   37 1    
    39   18   88 1    
    40   19   20 am   BACKBONE|DICT|INTERRES
    41   19   89 1    
    42   20   21 2    
    43   20   22 1    
    44   22   23 1    
    45   22   24 1    
    46   22   90 1    
    47   23   91 1    
    48   23   92 1    
    49   23   93 1    
    50   24   25 am   BACKBONE|DICT|INTERRES
    51   24   94 1    
    52   25   26 2    
    53   25   27 1    
    54   27   28 1    
    55   27   29 1    
    56   27   95 1    
    57   28   96 1    
    58   28   97 1    
    59   28   98 1    
    60   29   30 am   BACKBONE|DICT|INTERRES
    61   29   99 1    
    62   30   31 2    
    63   30   32 1    
    64   32   33 1    
    65   32   34 1    
    66   32  100 1    
    67   33  101 1    
    68   33  102 1    
    69   33  103 1    
    70   34   35 am   BACKBONE|DICT|INTERRES
    71   34  104 1    
    72   35   36 2    
    73   37   38 2    
    74   37   39 am   BACKBONE|DICT|INTERRES
    75   39   40 1    
    76   39  105 1    
    77   40   41 1    
    78   40   42 1    
    79   40  106 1    
    80   41  107 1    
    81   41  108 1    
    82   41  109 1    
    83   42   43 2    
    84   42   44 am   BACKBONE|DICT|INTERRES
    85   44   45 1    
    86   44  110 1    
    87   45   46 1    
    88   45   47 1    
    89   45  111 1    
    90   46  112 1    
    91   46  113 1    
    92   46  114 1    
    93   47   48 2    
    94   47   49 am   BACKBONE|DICT|INTERRES
    95   49   50 1    
    96   49  115 1    
    97   50   51 1    
    98   50   52 1    
    99   50  116 1    
   100   51  117 1    
   101   51  118 1    
   102   51  119 1    
   103   52   53 2    
   104   52   54 am   BACKBONE|DICT|INTERRES
   105   54   55 1    
   106   54  120 1    
   107   55   56 1    
   108   55   57 1    
   109   55  121 1    
   110   56  122 1    
   111   56  123 1    
   112   56  124 1    
   113   57   58 2    
   114   57   59 am   BACKBONE|DICT|INTERRES
   115   59   60 1    
   116   59  125 1    
   117   60   61 1    
   118   60   62 1    
   119   60  126 1    
   120   61  127 1    
   121   61  128 1    
   122   61  129 1    
   123   62   63 2    
   124   62   64 am   BACKBONE|DICT|INTERRES
   125   64   65 1    
   126   64  130 1    
   127   65   66 1    
   128   65   69 1    
   129   65  131 1    
   130   66   67 am   BACKBONE|DICT|INTERRES
   131   66   68 2    
   132   67  132 1    
   133   67  133 1    
   134   69   70 1    
   135   69  134 1    
   136   69  135 1    
   137   70   71 1    
   138   71  136 1    
   139   71  137 1    
@<TRIPOS>SUBSTRUCTURE
     1 UNK         1 GROUP             0       ****    0 ROOT    
