@<TRIPOS>MOLECULE
3R136
137   139    1
SMALL
USER_CHARGES


@<TRIPOS>ATOM
      1 CA         33.4523   21.1580   -2.6502 C.3       0 UNK        -0.1979 
      2 C          32.7150   22.0426   -1.6557 C.2       0 UNK         0.4864 
      3 O          33.0630   23.2146   -1.5063 O.2       0 UNK        -0.5359 
      4 N          31.7066   21.4872   -0.9717 N.am      1 UNK        -0.4318 
      5 CA         30.8567   22.1840   -0.0006 C.3       1 UNK         0.0824 
      6 C6         29.9943   21.1915    0.8200 C.3       12 UNK        -0.0944 
      7 S7         31.0271   20.0192    1.7676 S.3       12 UNK        -0.2672 
      8 C8         30.4269   20.2447    3.4787 C.3       12 UNK         0.0333 
      9 C9         30.5243   21.6728    4.0143 C.ar      12 UNK        -0.0807 
     10 C10        31.5778   22.5240    3.6609 C.ar      12 UNK        -0.0894 
     11 C11        31.6235   23.8365    4.1386 C.ar      12 UNK        -0.0804 
     12 C12        30.6346   24.2876    5.0169 C.ar      12 UNK        -0.0824 
     13 C13        29.5941   23.4385    5.4042 C.ar      12 UNK        -0.0762 
     14 C14        29.5409   22.1383    4.8930 C.ar      12 UNK        -0.0782 
     15 C15        28.5330   23.9097    6.3874 C.3       12 UNK         0.0230 
     16 S16        27.0995   24.6444    5.5403 S.3       12 UNK        -0.2608 
     17 C17        27.6778   26.3468    5.2245 C.3       12 UNK        -0.0989 
     18 CA         27.7324   26.7013    3.7135 C.3       5 UNK         0.0716 
     19 N          26.4487   26.5379    3.0136 N.am      5 UNK        -0.4135 
     20 C          25.2700   27.1210    3.2868 C.2       4 UNK         0.5031 
     21 O          25.1183   27.9652    4.1727 O.2       4 UNK        -0.5229 
     22 CA         24.0472   26.6802    2.4520 C.3       4 UNK         0.0329 
     23 CB         22.9771   27.7875    2.3331 C.3       4 UNK        -0.2001 
     24 N          24.3913   26.1311    1.1341 N.am      4 UNK        -0.4303 
     25 C          24.9886   26.7755    0.1222 C.2       3 UNK         0.5044 
     26 O          25.2796   27.9725    0.1267 O.2       3 UNK        -0.5152 
     27 CA         25.3729   25.9116   -1.0899 C.3       3 UNK         0.0319 
     28 CB         24.6914   26.4187   -2.3719 C.3       3 UNK        -0.2001 
     29 N          26.8243   25.8921   -1.2827 N.am      3 UNK        -0.4354 
     30 C          27.7114   25.4253   -0.3931 C.2       2 UNK         0.4964 
     31 O          27.4035   24.9321    0.6962 O.2       2 UNK        -0.5047 
     32 CA         29.1923   25.5733   -0.7740 C.3       2 UNK         0.0288 
     33 CB         29.7529   26.9048   -0.2496 C.3       2 UNK        -0.2113 
     34 N          29.9980   24.4726   -0.2451 N.am      2 UNK        -0.4145 
     35 C          29.9677   23.2197   -0.7169 C.2       1 UNK         0.5006 
     36 O          29.2797   22.8641   -1.6784 O.2       1 UNK        -0.5103 
     37 C          28.3762   28.0894    3.5171 C.2       5 UNK         0.5055 
     38 O          29.5591   28.1638    3.1849 O.2       5 UNK        -0.5220 
     39 N          27.6191   29.1594    3.7764 N.am      6 UNK        -0.4450 
     40 CA         28.0887   30.5398    3.7479 C.3       6 UNK         0.0367 
     41 CB         27.1240   31.4197    4.5592 C.3       6 UNK        -0.1929 
     42 C          28.2326   31.0666    2.3123 C.2       6 UNK         0.5070 
     43 O          27.2604   31.0650    1.5549 O.2       6 UNK        -0.5237 
     44 N          29.4302   31.5597    1.9983 N.am      7 UNK        -0.4739 
     45 CA         29.7653   32.3437    0.8168 C.3       7 UNK         0.0276 
     46 CB         30.4793   31.4432   -0.2126 C.3       7 UNK        -0.1927 
     47 C          30.5958   33.5294    1.3325 C.2       7 UNK         0.5013 
     48 O          30.0731   34.3277    2.1143 O.2       7 UNK        -0.5193 
     49 N          31.8822   33.6028    0.9670 N.am      8 UNK        -0.4253 
     50 CA         32.8712   34.4865    1.5920 C.3       8 UNK         0.0242 
     51 CB         34.0145   34.7455    0.5928 C.3       8 UNK        -0.2000 
     52 C          33.3615   33.8409    2.9028 C.2       8 UNK         0.4948 
     53 O          34.4606   33.2847    2.9335 O.2       8 UNK        -0.5275 
     54 N          32.4893   33.8607    3.9232 N.am      9 UNK        -0.4246 
     55 CA         32.5006   33.0169    5.1295 C.3       9 UNK         0.0261 
     56 CB         33.8149   33.1552    5.9304 C.3       9 UNK        -0.1959 
     57 C          32.1442   31.5580    4.7742 C.2       9 UNK         0.5033 
     58 O          31.6163   31.3164    3.6856 O.2       9 UNK        -0.5390 
     59 N          32.3951   30.6052    5.6837 N.am      10 UNK        -0.4215 
     60 CA         32.1468   29.1731    5.4698 C.3       10 UNK         0.0240 
     61 CB         32.4100   28.3993    6.7731 C.3       10 UNK        -0.1982 
     62 C          33.0041   28.6351    4.3100 C.2       10 UNK         0.4970 
     63 O          34.2210   28.5152    4.4657 O.2       10 UNK        -0.4916 
     64 N          32.3558   28.3857    3.1655 N.am      11 UNK        -0.4279 
     65 CA         32.9733   28.0932    1.8609 C.3       11 UNK         0.1003 
     66 C          33.8989   29.2287    1.3241 C.2       11 UNK         0.5709 
     67 N          33.6983   30.4754    1.7334 N.am      11 UNK        -0.7358 
     68 O          34.7903   28.9904    0.5124 O.2       11 UNK        -0.4999 
     69 C69        33.6168   26.6792    1.7997 C.3       12 UNK        -0.0954 
     70 S70        32.3657   25.3724    2.0026 S.3       12 UNK        -0.2268 
     71 C71        32.7257   24.7739    3.6781 C.3       12 UNK         0.0203 
     72 H72        33.0501   20.1452   -2.6717 H         1 UNK         0.0888 
     73 H73        33.3735   21.5755   -3.6536 H         1 UNK         0.0888 
     74 H74        34.5081   21.0976   -2.3876 H         1 UNK         0.0888 
     75 H75        31.4637   20.5219   -1.1411 H         1 UNK         0.3017 
     76 H76        31.5153   22.7153    0.6891 H         1 UNK         0.0873 
     77 H77        29.3380   21.7337    1.5037 H         1 UNK         0.0745 
     78 H78        29.3370   20.6164    0.1649 H         1 UNK         0.0745 
     79 H79        29.3935   19.8965    3.5200 H         1 UNK         0.0705 
     80 H80        30.9994   19.5893    4.1361 H         1 UNK         0.0705 
     81 H81        32.3522   22.1790    2.9901 H         1 UNK         0.1334 
     82 H82        30.6753   25.2996    5.3943 H         1 UNK         0.1417 
     83 H83        28.7291   21.4856    5.1854 H         1 UNK         0.1562 
     84 H84        28.9550   24.6191    7.1010 H         1 UNK         0.0748 
     85 H85        28.1853   23.0637    6.9823 H         1 UNK         0.0748 
     86 H86        28.6593   26.4853    5.6800 H         1 UNK         0.0940 
     87 H87        27.0144   27.0281    5.7599 H         1 UNK         0.0940 
     88 H88        28.4071   25.9871    3.2373 H         1 UNK         0.0703 
     89 H89        26.4894   25.8902    2.2328 H         1 UNK         0.3081 
     90 H90        23.5985   25.8558    3.0081 H         1 UNK         0.0719 
     91 H91        23.3751   28.6879    1.8642 H         1 UNK         0.0809 
     92 H92        22.1216   27.4528    1.7467 H         1 UNK         0.0809 
     93 H93        22.6007   28.0753    3.3156 H         1 UNK         0.0809 
     94 H94        24.2208   25.1404    1.0243 H         1 UNK         0.2990 
     95 H95        25.0469   24.8837   -0.9167 H         1 UNK         0.0690 
     96 H96        24.9180   25.7770   -3.2236 H         1 UNK         0.0788 
     97 H97        25.0042   27.4334   -2.6224 H         1 UNK         0.0788 
     98 H98        23.6067   26.4319   -2.2566 H         1 UNK         0.0788 
     99 H99        27.1663   26.3168   -2.1325 H         1 UNK         0.2993 
    100 H100       29.2768   25.5646   -1.8631 H         1 UNK         0.0949 
    101 H101       29.1614   27.7514   -0.6012 H         1 UNK         0.0767 
    102 H102       29.7524   26.9374    0.8399 H         1 UNK         0.0767 
    103 H103       30.7767   27.0611   -0.5896 H         1 UNK         0.0767 
    104 H104       30.5811   24.6846    0.5538 H         1 UNK         0.3013 
    105 H105       26.6393   28.9981    4.0001 H         1 UNK         0.3121 
    106 H106       29.0625   30.5754    4.2411 H         1 UNK         0.0774 
    107 H107       27.4571   32.4584    4.5650 H         1 UNK         0.0815 
    108 H108       26.1157   31.4019    4.1432 H         1 UNK         0.0815 
    109 H109       27.0648   31.0918    5.5972 H         1 UNK         0.0815 
    110 H110       30.1779   31.5020    2.6925 H         1 UNK         0.2987 
    111 H111       28.8612   32.7565    0.3640 H         1 UNK         0.0949 
    112 H112       29.8173   30.6455   -0.5507 H         1 UNK         0.0806 
    113 H113       30.7748   32.0082   -1.0975 H         1 UNK         0.0806 
    114 H114       31.3693   30.9694    0.2017 H         1 UNK         0.0806 
    115 H115       32.2443   32.8850    0.3564 H         1 UNK         0.3010 
    116 H116       32.4121   35.4477    1.8340 H         1 UNK         0.0829 
    117 H117       33.6493   35.2445   -0.3049 H         1 UNK         0.0813 
    118 H118       34.7771   35.3889    1.0336 H         1 UNK         0.0813 
    119 H119       34.5055   33.8213    0.2855 H         1 UNK         0.0813 
    120 H120       31.5942   34.2932    3.7245 H         1 UNK         0.3038 
    121 H121       31.6881   33.3858    5.7568 H         1 UNK         0.0769 
    122 H122       34.6423   32.6283    5.4535 H         1 UNK         0.0811 
    123 H123       33.7096   32.7517    6.9377 H         1 UNK         0.0811 
    124 H124       34.1040   34.2008    6.0371 H         1 UNK         0.0811 
    125 H125       32.8472   30.8637    6.5482 H         1 UNK         0.3204 
    126 H126       31.0919   29.0502    5.2169 H         1 UNK         0.0748 
    127 H127       31.7509   28.7350    7.5739 H         1 UNK         0.0771 
    128 H128       32.2318   27.3321    6.6335 H         1 UNK         0.0771 
    129 H129       33.4397   28.5158    7.1137 H         1 UNK         0.0771 
    130 H130       31.3410   28.4787    3.1481 H         1 UNK         0.2980 
    131 H131       32.1427   28.0945    1.1556 H         1 UNK         0.0545 
    132 H132       34.3207   31.2065    1.4291 H         1 UNK         0.3459 
    133 H133       32.9704   30.6825    2.4090 H         1 UNK         0.3459 
    134 H134       34.0866   26.5092    0.8297 H         1 UNK         0.0616 
    135 H135       34.4071   26.5712    2.5439 H         1 UNK         0.0616 
    136 H136       33.6869   24.2580    3.6835 H         1 UNK         0.0634 
    137 H137       32.8183   25.6205    4.3595 H         1 UNK         0.0634 
@<TRIPOS>BOND
     1    1    2 1    
     2    1   72 1    
     3    1   73 1    
     4    1   74 1    
     5    2    3 2    
     6    2    4 am   BACKBONE|DICT|INTERRES
     7    4    5 1    
     8    4   75 1    
     9    5    6 1    
    10    5   35 1    
    11    5   76 1    
    12    6    7 1    
    13    6   77 1    
    14    6   78 1    
    15    7    8 1    
    16    8    9 1    
    17    8   79 1    
    18    8   80 1    
    19    9   10 ar   
    20    9   14 ar   
    21   10   11 ar   
    22   10   81 1    
    23   11   12 ar   
    24   11   71 1    
    25   12   13 ar   
    26   12   82 1    
    27   13   14 ar   
    28   13   15 1    
    29   14   83 1    
    30   15   16 1    
    31   15   84 1    
    32   15   85 1    
    33   16   17 1    
    34   17   18 1    
    35   17   86 1    
    36   17   87 1    
    37   18   19 1    
    38   18   37 1    
    39   18   88 1    
    40   19   20 am   BACKBONE|DICT|INTERRES
    41   19   89 1    
    42   20   21 2    
    43   20   22 1    
    44   22   23 1    
    45   22   24 1    
    46   22   90 1    
    47   23   91 1    
    48   23   92 1    
    49   23   93 1    
    50   24   25 am   BACKBONE|DICT|INTERRES
    51   24   94 1    
    52   25   26 2    
    53   25   27 1    
    54   27   28 1    
    55   27   29 1    
    56   27   95 1    
    57   28   96 1    
    58   28   97 1    
    59   28   98 1    
    60   29   30 am   BACKBONE|DICT|INTERRES
    61   29   99 1    
    62   30   31 2    
    63   30   32 1    
    64   32   33 1    
    65   32   34 1    
    66   32  100 1    
    67   33  101 1    
    68   33  102 1    
    69   33  103 1    
    70   34   35 am   BACKBONE|DICT|INTERRES
    71   34  104 1    
    72   35   36 2    
    73   37   38 2    
    74   37   39 am   BACKBONE|DICT|INTERRES
    75   39   40 1    
    76   39  105 1    
    77   40   41 1    
    78   40   42 1    
    79   40  106 1    
    80   41  107 1    
    81   41  108 1    
    82   41  109 1    
    83   42   43 2    
    84   42   44 am   BACKBONE|DICT|INTERRES
    85   44   45 1    
    86   44  110 1    
    87   45   46 1    
    88   45   47 1    
    89   45  111 1    
    90   46  112 1    
    91   46  113 1    
    92   46  114 1    
    93   47   48 2    
    94   47   49 am   BACKBONE|DICT|INTERRES
    95   49   50 1    
    96   49  115 1    
    97   50   51 1    
    98   50   52 1    
    99   50  116 1    
   100   51  117 1    
   101   51  118 1    
   102   51  119 1    
   103   52   53 2    
   104   52   54 am   BACKBONE|DICT|INTERRES
   105   54   55 1    
   106   54  120 1    
   107   55   56 1    
   108   55   57 1    
   109   55  121 1    
   110   56  122 1    
   111   56  123 1    
   112   56  124 1    
   113   57   58 2    
   114   57   59 am   BACKBONE|DICT|INTERRES
   115   59   60 1    
   116   59  125 1    
   117   60   61 1    
   118   60   62 1    
   119   60  126 1    
   120   61  127 1    
   121   61  128 1    
   122   61  129 1    
   123   62   63 2    
   124   62   64 am   BACKBONE|DICT|INTERRES
   125   64   65 1    
   126   64  130 1    
   127   65   66 1    
   128   65   69 1    
   129   65  131 1    
   130   66   67 am   BACKBONE|DICT|INTERRES
   131   66   68 2    
   132   67  132 1    
   133   67  133 1    
   134   69   70 1    
   135   69  134 1    
   136   69  135 1    
   137   70   71 1    
   138   71  136 1    
   139   71  137 1    
@<TRIPOS>SUBSTRUCTURE
     1 UNK         1 GROUP             0       ****    0 ROOT    
