@<TRIPOS>MOLECULE
3R136
137   139    1
SMALL
USER_CHARGES


@<TRIPOS>ATOM
      1 CA         26.8156   22.1284   -0.0937 C.3       0 UNK        -0.1979 
      2 C          28.1105   21.9192   -0.8623 C.2       0 UNK         0.4864 
      3 O          28.0826   21.7644   -2.0837 O.2       0 UNK        -0.5359 
      4 N          29.2463   21.9094   -0.1517 N.am      1 UNK        -0.4318 
      5 CA         30.5867   21.6857   -0.7148 C.3       1 UNK         0.0824 
      6 C6         31.6239   21.3313    0.3795 C.3       12 UNK        -0.0944 
      7 S7         31.1387   19.8665    1.3502 S.3       12 UNK        -0.2672 
      8 C8         31.7557   20.3074    3.0075 C.3       12 UNK         0.0333 
      9 C9         31.0055   21.4733    3.6439 C.ar      12 UNK        -0.0807 
     10 C10        31.7106   22.5801    4.1298 C.ar      12 UNK        -0.0894 
     11 C11        31.0403   23.6178    4.7855 C.ar      12 UNK        -0.0804 
     12 C12        29.6535   23.5510    4.9407 C.ar      12 UNK        -0.0824 
     13 C13        28.9336   22.4640    4.4375 C.ar      12 UNK        -0.0762 
     14 C14        29.6159   21.4248    3.7973 C.ar      12 UNK        -0.0782 
     15 C15        27.4239   22.3946    4.6082 C.3       12 UNK         0.0230 
     16 S16        26.5580   23.3800    3.3461 S.3       12 UNK        -0.2608 
     17 C17        26.5624   25.0512    4.0846 C.3       12 UNK        -0.0989 
     18 CA         27.3808   26.0953    3.2678 C.3       5 UNK         0.0716 
     19 N          26.9778   26.1834    1.8566 N.am      5 UNK        -0.4135 
     20 C          25.7629   26.4969    1.3813 C.2       4 UNK         0.5031 
     21 O          24.7862   26.7356    2.0939 O.2       4 UNK        -0.5229 
     22 CA         25.6269   26.5785   -0.1553 C.3       4 UNK         0.0329 
     23 CB         24.4173   27.4326   -0.5908 C.3       4 UNK        -0.2001 
     24 N          26.8381   27.0403   -0.8518 N.am      4 UNK        -0.4303 
     25 C          27.5289   28.1677   -0.6301 C.2       3 UNK         0.5044 
     26 O          27.2910   28.9353    0.3020 O.2       3 UNK        -0.5152 
     27 CA         28.6923   28.4687   -1.5976 C.3       3 UNK         0.0319 
     28 CB         29.3194   29.8522   -1.3361 C.3       3 UNK        -0.2001 
     29 N          29.7520   27.4551   -1.5582 N.am      3 UNK        -0.4354 
     30 C          29.6798   26.2132   -2.0566 C.2       2 UNK         0.4964 
     31 O          28.6655   25.7512   -2.5828 O.2       2 UNK        -0.5047 
     32 CA         30.9298   25.3276   -1.9486 C.3       2 UNK         0.0288 
     33 CB         32.1129   25.9607   -1.1860 C.3       2 UNK        -0.2113 
     34 N          30.5524   24.0733   -1.3074 N.am      2 UNK        -0.4145 
     35 C          31.1010   22.8775   -1.5509 C.2       1 UNK         0.5006 
     36 O          31.9959   22.6917   -2.3782 O.2       1 UNK        -0.5103 
     37 C          27.4155   27.4697    3.9858 C.2       5 UNK         0.5055 
     38 O          27.5180   27.4921    5.2144 O.2       5 UNK        -0.5220 
     39 N          27.3222   28.5896    3.2503 N.am      6 UNK        -0.4450 
     40 CA         27.3109   29.9367    3.8205 C.3       6 UNK         0.0367 
     41 CB         26.6852   30.9212    2.8196 C.3       6 UNK        -0.1929 
     42 C          28.7263   30.3866    4.2072 C.2       6 UNK         0.5070 
     43 O          29.6423   30.3021    3.3858 O.2       6 UNK        -0.5237 
     44 N          28.8629   30.8961    5.4376 N.am      7 UNK        -0.4739 
     45 CA         30.0887   31.5045    5.9574 C.3       7 UNK         0.0276 
     46 CB         29.9272   31.7454    7.4669 C.3       7 UNK        -0.1927 
     47 C          30.4202   32.8208    5.2333 C.2       7 UNK         0.5013 
     48 O          29.5153   33.4844    4.7198 O.2       7 UNK        -0.5193 
     49 N          31.7135   33.1668    5.1960 N.am      8 UNK        -0.4253 
     50 CA         32.3360   34.3175    4.5206 C.3       8 UNK         0.0242 
     51 CB         31.7629   35.6629    5.0093 C.3       8 UNK        -0.2000 
     52 C          32.3215   34.2212    2.9835 C.2       8 UNK         0.4948 
     53 O          33.3319   34.5443    2.3580 O.2       8 UNK        -0.5275 
     54 N          31.2113   33.7459    2.4021 N.am      9 UNK        -0.4246 
     55 CA         31.1010   33.3522    0.9947 C.3       9 UNK         0.0261 
     56 CB         29.6273   33.0852    0.6503 C.3       9 UNK        -0.1959 
     57 C          31.9656   32.1181    0.6796 C.2       9 UNK         0.5033 
     58 O          32.5905   32.0658   -0.3805 O.2       9 UNK        -0.5390 
     59 N          32.0110   31.1748    1.6257 N.am      10 UNK        -0.4215 
     60 CA         32.8976   30.0195    1.6616 C.3       10 UNK         0.0240 
     61 CB         32.2954   28.8708    0.8303 C.3       10 UNK        -0.1982 
     62 C          33.1303   29.6416    3.1341 C.2       10 UNK         0.4970 
     63 O          32.8213   30.4393    4.0245 O.2       10 UNK        -0.4916 
     64 N          33.6665   28.4362    3.3634 N.am      11 UNK        -0.4279 
     65 CA         33.8950   27.8359    4.6887 C.3       11 UNK         0.1003 
     66 C          34.9125   28.6396    5.5588 C.2       11 UNK         0.5709 
     67 N          34.8647   28.5328    6.8807 N.am      11 UNK        -0.7358 
     68 O          35.7963   29.3198    5.0394 O.2       11 UNK        -0.4999 
     69 C69        32.5573   27.4855    5.4109 C.3       12 UNK        -0.0954 
     70 S70        31.5241   26.3285    4.4455 S.3       12 UNK        -0.2268 
     71 C71        31.8128   24.7898    5.3715 C.3       12 UNK         0.0203 
     72 H72        25.9783   21.6743   -0.6230 H         1 UNK         0.0888 
     73 H73        26.8693   21.6740    0.8952 H         1 UNK         0.0888 
     74 H74        26.6101   23.1919    0.0232 H         1 UNK         0.0888 
     75 H75        29.2088   22.0118    0.8529 H         1 UNK         0.3017 
     76 H76        30.5179   20.8353   -1.3970 H         1 UNK         0.0873 
     77 H77        32.5980   21.1212   -0.0670 H         1 UNK         0.0745 
     78 H78        31.7731   22.1813    1.0483 H         1 UNK         0.0745 
     79 H79        32.8238   20.5200    2.9386 H         1 UNK         0.0705 
     80 H80        31.6591   19.4367    3.6575 H         1 UNK         0.0705 
     81 H81        32.7861   22.6216    4.0230 H         1 UNK         0.1334 
     82 H82        29.1393   24.3496    5.4567 H         1 UNK         0.1417 
     83 H83        29.0680   20.5686    3.4270 H         1 UNK         0.1562 
     84 H84        27.1376   22.7194    5.6095 H         1 UNK         0.0748 
     85 H85        27.0872   21.3601    4.5250 H         1 UNK         0.0748 
     86 H86        26.9367   24.9857    5.1067 H         1 UNK         0.0940 
     87 H87        25.5248   25.3730    4.1853 H         1 UNK         0.0940 
     88 H88        28.4178   25.7562    3.2532 H         1 UNK         0.0703 
     89 H89        27.7138   26.0255    1.1854 H         1 UNK         0.3081 
     90 H90        25.4499   25.5571   -0.4950 H         1 UNK         0.0719 
     91 H91        24.5063   28.4619   -0.2410 H         1 UNK         0.0809 
     92 H92        24.3166   27.4546   -1.6759 H         1 UNK         0.0809 
     93 H93        23.4856   27.0310   -0.1903 H         1 UNK         0.0809 
     94 H94        27.1755   26.4472   -1.6067 H         1 UNK         0.2990 
     95 H95        28.2731   28.4824   -2.6059 H         1 UNK         0.0690 
     96 H96        30.1199   30.0717   -2.0428 H         1 UNK         0.0788 
     97 H97        29.7292   29.9277   -0.3279 H         1 UNK         0.0788 
     98 H98        28.5733   30.6411   -1.4393 H         1 UNK         0.0788 
     99 H99        30.6169   27.7353   -1.1209 H         1 UNK         0.2993 
    100 H100       31.2462   25.1280   -2.9748 H         1 UNK         0.0949 
    101 H101       31.8639   26.1394   -0.1397 H         1 UNK         0.0767 
    102 H102       32.9828   25.3036   -1.2042 H         1 UNK         0.0767 
    103 H103       32.4256   26.9039   -1.6358 H         1 UNK         0.0767 
    104 H104       29.7789   24.1200   -0.6603 H         1 UNK         0.3013 
    105 H105       27.2878   28.5333    2.2362 H         1 UNK         0.3121 
    106 H106       26.6806   29.9269    4.7126 H         1 UNK         0.0774 
    107 H107       25.6787   30.6144    2.5352 H         1 UNK         0.0815 
    108 H108       26.6146   31.9209    3.2501 H         1 UNK         0.0815 
    109 H109       27.2793   31.0030    1.9095 H         1 UNK         0.0815 
    110 H110       28.0476   30.9552    6.0300 H         1 UNK         0.2987 
    111 H111       30.9066   30.7989    5.7985 H         1 UNK         0.0949 
    112 H112       29.1152   32.4422    7.6799 H         1 UNK         0.0806 
    113 H113       29.7213   30.8157    7.9978 H         1 UNK         0.0806 
    114 H114       30.8375   32.1659    7.8965 H         1 UNK         0.0806 
    115 H115       32.3735   32.5103    5.5926 H         1 UNK         0.3010 
    116 H116       33.3855   34.2886    4.8187 H         1 UNK         0.0829 
    117 H117       31.8121   35.7443    6.0951 H         1 UNK         0.0813 
    118 H118       32.3311   36.4969    4.5955 H         1 UNK         0.0813 
    119 H119       30.7245   35.8029    4.7083 H         1 UNK         0.0813 
    120 H120       30.4193   33.5500    3.0084 H         1 UNK         0.3038 
    121 H121       31.4567   34.1817    0.3799 H         1 UNK         0.0769 
    122 H122       29.5149   32.8334   -0.4048 H         1 UNK         0.0811 
    123 H123       29.0079   33.9613    0.8426 H         1 UNK         0.0811 
    124 H124       29.2236   32.2540    1.2295 H         1 UNK         0.0811 
    125 H125       31.4543   31.2846    2.4679 H         1 UNK         0.3204 
    126 H126       33.8656   30.3016    1.2426 H         1 UNK         0.0748 
    127 H127       32.9778   28.0231    0.7779 H         1 UNK         0.0771 
    128 H128       31.3537   28.5202    1.2565 H         1 UNK         0.0771 
    129 H129       32.1076   29.1874   -0.1953 H         1 UNK         0.0771 
    130 H130       33.9230   27.8606    2.5761 H         1 UNK         0.2980 
    131 H131       34.4070   26.8941    4.4893 H         1 UNK         0.0545 
    132 H132       35.5400   29.0358    7.4348 H         1 UNK         0.3459 
    133 H133       34.1674   27.9653    7.3346 H         1 UNK         0.3459 
    134 H134       32.7433   27.0400    6.3885 H         1 UNK         0.0616 
    135 H135       31.9737   28.3878    5.5999 H         1 UNK         0.0616 
    136 H136       32.8831   24.5779    5.3847 H         1 UNK         0.0634 
    137 H137       31.5111   24.9319    6.4103 H         1 UNK         0.0634 
@<TRIPOS>BOND
     1    1    2 1    
     2    1   72 1    
     3    1   73 1    
     4    1   74 1    
     5    2    3 2    
     6    2    4 am   BACKBONE|DICT|INTERRES
     7    4    5 1    
     8    4   75 1    
     9    5    6 1    
    10    5   35 1    
    11    5   76 1    
    12    6    7 1    
    13    6   77 1    
    14    6   78 1    
    15    7    8 1    
    16    8    9 1    
    17    8   79 1    
    18    8   80 1    
    19    9   10 ar   
    20    9   14 ar   
    21   10   11 ar   
    22   10   81 1    
    23   11   12 ar   
    24   11   71 1    
    25   12   13 ar   
    26   12   82 1    
    27   13   14 ar   
    28   13   15 1    
    29   14   83 1    
    30   15   16 1    
    31   15   84 1    
    32   15   85 1    
    33   16   17 1    
    34   17   18 1    
    35   17   86 1    
    36   17   87 1    
    37   18   19 1    
    38   18   37 1    
    39   18   88 1    
    40   19   20 am   BACKBONE|DICT|INTERRES
    41   19   89 1    
    42   20   21 2    
    43   20   22 1    
    44   22   23 1    
    45   22   24 1    
    46   22   90 1    
    47   23   91 1    
    48   23   92 1    
    49   23   93 1    
    50   24   25 am   BACKBONE|DICT|INTERRES
    51   24   94 1    
    52   25   26 2    
    53   25   27 1    
    54   27   28 1    
    55   27   29 1    
    56   27   95 1    
    57   28   96 1    
    58   28   97 1    
    59   28   98 1    
    60   29   30 am   BACKBONE|DICT|INTERRES
    61   29   99 1    
    62   30   31 2    
    63   30   32 1    
    64   32   33 1    
    65   32   34 1    
    66   32  100 1    
    67   33  101 1    
    68   33  102 1    
    69   33  103 1    
    70   34   35 am   BACKBONE|DICT|INTERRES
    71   34  104 1    
    72   35   36 2    
    73   37   38 2    
    74   37   39 am   BACKBONE|DICT|INTERRES
    75   39   40 1    
    76   39  105 1    
    77   40   41 1    
    78   40   42 1    
    79   40  106 1    
    80   41  107 1    
    81   41  108 1    
    82   41  109 1    
    83   42   43 2    
    84   42   44 am   BACKBONE|DICT|INTERRES
    85   44   45 1    
    86   44  110 1    
    87   45   46 1    
    88   45   47 1    
    89   45  111 1    
    90   46  112 1    
    91   46  113 1    
    92   46  114 1    
    93   47   48 2    
    94   47   49 am   BACKBONE|DICT|INTERRES
    95   49   50 1    
    96   49  115 1    
    97   50   51 1    
    98   50   52 1    
    99   50  116 1    
   100   51  117 1    
   101   51  118 1    
   102   51  119 1    
   103   52   53 2    
   104   52   54 am   BACKBONE|DICT|INTERRES
   105   54   55 1    
   106   54  120 1    
   107   55   56 1    
   108   55   57 1    
   109   55  121 1    
   110   56  122 1    
   111   56  123 1    
   112   56  124 1    
   113   57   58 2    
   114   57   59 am   BACKBONE|DICT|INTERRES
   115   59   60 1    
   116   59  125 1    
   117   60   61 1    
   118   60   62 1    
   119   60  126 1    
   120   61  127 1    
   121   61  128 1    
   122   61  129 1    
   123   62   63 2    
   124   62   64 am   BACKBONE|DICT|INTERRES
   125   64   65 1    
   126   64  130 1    
   127   65   66 1    
   128   65   69 1    
   129   65  131 1    
   130   66   67 am   BACKBONE|DICT|INTERRES
   131   66   68 2    
   132   67  132 1    
   133   67  133 1    
   134   69   70 1    
   135   69  134 1    
   136   69  135 1    
   137   70   71 1    
   138   71  136 1    
   139   71  137 1    
@<TRIPOS>SUBSTRUCTURE
     1 UNK         1 GROUP             0       ****    0 ROOT    
