@<TRIPOS>MOLECULE
3R136
137   139    1
SMALL
USER_CHARGES


@<TRIPOS>ATOM
      1 CA         26.4548   28.5633    2.5567 C.3       0 UNK        -0.1979 
      2 C          26.4425   27.0442    2.6154 C.2       0 UNK         0.4864 
      3 O          25.4021   26.4652    2.9339 O.2       0 UNK        -0.5359 
      4 N          27.5741   26.3898    2.3101 N.am      1 UNK        -0.4318 
      5 CA         27.7235   24.9288    2.2782 C.3       1 UNK         0.0824 
      6 C6         29.1723   24.4964    1.9575 C.3       12 UNK        -0.0944 
      7 S7         30.3340   24.9251    3.2956 S.3       12 UNK        -0.2672 
      8 C8         31.8859   24.1961    2.6795 C.3       12 UNK         0.0333 
      9 C9         32.4967   25.0032    1.5403 C.ar      12 UNK        -0.0807 
     10 C10        33.4480   25.9942    1.8070 C.ar      12 UNK        -0.0894 
     11 C11        34.0253   26.7277    0.7632 C.ar      12 UNK        -0.0804 
     12 C12        33.6370   26.4627   -0.5537 C.ar      12 UNK        -0.0824 
     13 C13        32.6898   25.4748   -0.8340 C.ar      12 UNK        -0.0762 
     14 C14        32.1317   24.7406    0.2160 C.ar      12 UNK        -0.0782 
     15 C15        32.2927   25.1902   -2.2754 C.3       12 UNK         0.0230 
     16 S16        31.2268   26.4983   -2.9576 S.3       12 UNK        -0.2608 
     17 C17        29.6420   26.1360   -2.1314 C.3       12 UNK        -0.0989 
     18 CA         28.6234   27.3023   -2.2761 C.3       5 UNK         0.0716 
     19 N          27.2414   26.8348   -2.2842 N.am      5 UNK        -0.4135 
     20 C          26.6277   26.2336   -3.3074 C.2       4 UNK         0.5031 
     21 O          27.1766   26.0104   -4.3880 O.2       4 UNK        -0.5229 
     22 CA         25.1635   25.8046   -3.1117 C.3       4 UNK         0.0329 
     23 CB         24.9392   24.3505   -3.5677 C.3       4 UNK        -0.2001 
     24 N          24.7172   25.9286   -1.7211 N.am      4 UNK        -0.4303 
     25 C          23.5564   26.4774   -1.3319 C.2       3 UNK         0.5044 
     26 O          22.7954   27.0706   -2.0988 O.2       3 UNK        -0.5152 
     27 CA         23.1675   26.3315    0.1583 C.3       3 UNK         0.0319 
     28 CB         21.6401   26.3360    0.3791 C.3       3 UNK        -0.2001 
     29 N          23.7827   25.1708    0.8153 N.am      3 UNK        -0.4354 
     30 C          23.6865   23.8791    0.4525 C.2       2 UNK         0.4964 
     31 O          22.9056   23.4700   -0.4079 O.2       2 UNK        -0.5047 
     32 CA         24.6493   22.8766    1.1298 C.3       2 UNK         0.0288 
     33 CB         25.1431   21.7967    0.1427 C.3       2 UNK        -0.2113 
     34 N          25.7943   23.4993    1.8128 N.am      2 UNK        -0.4145 
     35 C          26.7292   24.3032    1.2795 C.2       1 UNK         0.5006 
     36 O          26.7815   24.6151    0.0857 O.2       1 UNK        -0.5103 
     37 C          28.7615   28.3748   -1.1797 C.2       5 UNK         0.5055 
     38 O          27.7536   28.8002   -0.6062 O.2       5 UNK        -0.5220 
     39 N          30.0054   28.7874   -0.9059 N.am      6 UNK        -0.4450 
     40 CA         30.3822   29.6721    0.1996 C.3       6 UNK         0.0367 
     41 CB         31.8596   30.0596    0.0377 C.3       6 UNK        -0.1929 
     42 C          30.1329   29.0181    1.5716 C.2       6 UNK         0.5070 
     43 O          29.9740   27.8001    1.6553 O.2       6 UNK        -0.5237 
     44 N          30.0564   29.8397    2.6237 N.am      7 UNK        -0.4739 
     45 CA         29.7919   29.3841    3.9884 C.3       7 UNK         0.0276 
     46 CB         29.1428   30.5294    4.7831 C.3       7 UNK        -0.1927 
     47 C          31.0832   28.9299    4.6782 C.2       7 UNK         0.5013 
     48 O          32.0808   29.6528    4.6290 O.2       7 UNK        -0.5193 
     49 N          31.0165   27.8003    5.3970 N.am      8 UNK        -0.4253 
     50 CA         32.1117   27.2526    6.2082 C.3       8 UNK         0.0242 
     51 CB         31.6690   25.9269    6.8475 C.3       8 UNK        -0.2000 
     52 C          32.6277   28.2196    7.2895 C.2       8 UNK         0.4948 
     53 O          33.8218   28.2140    7.5842 O.2       8 UNK        -0.5275 
     54 N          31.7319   29.0624    7.8236 N.am      9 UNK        -0.4246 
     55 CA         32.0491   30.1377    8.7662 C.3       9 UNK         0.0261 
     56 CB         30.7407   30.7161    9.3294 C.3       9 UNK        -0.1959 
     57 C          32.9150   31.2597    8.1608 C.2       9 UNK         0.5033 
     58 O          33.6420   31.9155    8.9085 O.2       9 UNK        -0.5390 
     59 N          32.8287   31.4648    6.8383 N.am      10 UNK        -0.4215 
     60 CA         33.6654   32.4072    6.0955 C.3       10 UNK         0.0240 
     61 CB         32.8737   32.9856    4.9098 C.3       10 UNK        -0.1982 
     62 C          34.9554   31.7271    5.6147 C.2       10 UNK         0.4970 
     63 O          36.0266   32.3250    5.7239 O.2       10 UNK        -0.4916 
     64 N          34.8298   30.4990    5.0943 N.am      11 UNK        -0.4279 
     65 CA         35.9461   29.6814    4.5969 C.3       11 UNK         0.1003 
     66 C          36.9412   29.2159    5.6962 C.2       11 UNK         0.5709 
     67 N          36.4965   28.9263    6.9120 N.am      11 UNK        -0.7358 
     68 O          38.1397   29.1244    5.4406 O.2       11 UNK        -0.4999 
     69 C69        35.4386   28.4792    3.7628 C.3       12 UNK        -0.0954 
     70 S70        34.5713   29.0294    2.2545 S.3       12 UNK        -0.2268 
     71 C71        35.0931   27.7831    1.0320 C.3       12 UNK         0.0203 
     72 H72        27.3360   28.9439    2.0463 H         1 UNK         0.0888 
     73 H73        26.4308   28.9799    3.5629 H         1 UNK         0.0888 
     74 H74        25.5802   28.9238    2.0161 H         1 UNK         0.0888 
     75 H75        28.4114   26.9098    2.0474 H         1 UNK         0.3017 
     76 H76        27.4790   24.5628    3.2777 H         1 UNK         0.0873 
     77 H77        29.5030   24.9720    1.0349 H         1 UNK         0.0745 
     78 H78        29.2305   23.4181    1.7961 H         1 UNK         0.0745 
     79 H79        32.5925   24.1383    3.5089 H         1 UNK         0.0705 
     80 H80        31.7078   23.1672    2.3635 H         1 UNK         0.0705 
     81 H81        33.7402   26.1937    2.8282 H         1 UNK         0.1334 
     82 H82        34.0760   27.0214   -1.3692 H         1 UNK         0.1417 
     83 H83        31.4090   23.9651    0.0033 H         1 UNK         0.1562 
     84 H84        31.7883   24.2265   -2.3615 H         1 UNK         0.0748 
     85 H85        33.1934   25.1171   -2.8868 H         1 UNK         0.0748 
     86 H86        29.8076   25.8869   -1.0825 H         1 UNK         0.0940 
     87 H87        29.2524   25.2256   -2.5895 H         1 UNK         0.0940 
     88 H88        28.7904   27.8141   -3.2266 H         1 UNK         0.0703 
     89 H89        26.7232   27.0638   -1.4461 H         1 UNK         0.3081 
     90 H90        24.5737   26.4593   -3.7561 H         1 UNK         0.0719 
     91 H91        25.5408   23.6520   -2.9846 H         1 UNK         0.0809 
     92 H92        23.8940   24.0592   -3.4609 H         1 UNK         0.0809 
     93 H93        25.2053   24.2177   -4.6172 H         1 UNK         0.0809 
     94 H94        25.2949   25.4588   -1.0289 H         1 UNK         0.2990 
     95 H95        23.5754   27.2100    0.6603 H         1 UNK         0.0690 
     96 H96        21.3923   26.2429    1.4365 H         1 UNK         0.0788 
     97 H97        21.1517   25.5194   -0.1536 H         1 UNK         0.0788 
     98 H98        21.1949   27.2667    0.0252 H         1 UNK         0.0788 
     99 H99        24.4274   25.4068    1.5656 H         1 UNK         0.2993 
    100 H100       24.0635   22.3782    1.9038 H         1 UNK         0.0949 
    101 H101       24.3090   21.2255   -0.2668 H         1 UNK         0.0767 
    102 H102       25.6809   22.2343   -0.6991 H         1 UNK         0.0767 
    103 H103       25.8086   21.0859    0.6326 H         1 UNK         0.0767 
    104 H104       25.8209   23.3519    2.8128 H         1 UNK         0.3013 
    105 H105       30.7641   28.3351   -1.3985 H         1 UNK         0.3121 
    106 H106       29.7696   30.5738    0.1363 H         1 UNK         0.0774 
    107 H107       32.0319   30.5908   -0.8984 H         1 UNK         0.0815 
    108 H108       32.5033   29.1802    0.0473 H         1 UNK         0.0815 
    109 H109       32.1903   30.7129    0.8463 H         1 UNK         0.0815 
    110 H110       30.2465   30.8237    2.5012 H         1 UNK         0.2987 
    111 H111       29.0922   28.5462    3.9611 H         1 UNK         0.0949 
    112 H112       29.8014   31.3961    4.8569 H         1 UNK         0.0806 
    113 H113       28.2122   30.8562    4.3189 H         1 UNK         0.0806 
    114 H114       28.9023   30.2153    5.7996 H         1 UNK         0.0806 
    115 H115       30.1652   27.2574    5.3720 H         1 UNK         0.3010 
    116 H116       32.9421   27.0423    5.5328 H         1 UNK         0.0829 
    117 H117       31.4117   25.1858    6.0913 H         1 UNK         0.0813 
    118 H118       32.4698   25.4997    7.4530 H         1 UNK         0.0813 
    119 H119       30.8036   26.0590    7.4979 H         1 UNK         0.0813 
    120 H120       30.7690   28.9806    7.5326 H         1 UNK         0.3038 
    121 H121       32.6142   29.7001    9.5921 H         1 UNK         0.0769 
    122 H122       30.1202   31.1524    8.5454 H         1 UNK         0.0811 
    123 H123       30.9441   31.5021   10.0582 H         1 UNK         0.0811 
    124 H124       30.1537   29.9510    9.8379 H         1 UNK         0.0811 
    125 H125       32.2589   30.8395    6.2796 H         1 UNK         0.3204 
    126 H126       33.9449   33.2394    6.7454 H         1 UNK         0.0748 
    127 H127       31.9668   33.4875    5.2472 H         1 UNK         0.0771 
    128 H128       33.4695   33.7219    4.3688 H         1 UNK         0.0771 
    129 H129       32.5832   32.2158    4.1941 H         1 UNK         0.0771 
    130 H130       33.9013   30.1032    4.9789 H         1 UNK         0.2980 
    131 H131       36.5243   30.3192    3.9251 H         1 UNK         0.0545 
    132 H132       37.1539   28.6337    7.6163 H         1 UNK         0.3459 
    133 H133       35.5003   28.8948    7.1130 H         1 UNK         0.3459 
    134 H134       36.2754   27.8383    3.4813 H         1 UNK         0.0616 
    135 H135       34.7628   27.8598    4.3523 H         1 UNK         0.0616 
    136 H136       36.0150   27.2904    1.3405 H         1 UNK         0.0634 
    137 H137       35.3349   28.3160    0.1112 H         1 UNK         0.0634 
@<TRIPOS>BOND
     1    1    2 1    
     2    1   72 1    
     3    1   73 1    
     4    1   74 1    
     5    2    3 2    
     6    2    4 am   BACKBONE|DICT|INTERRES
     7    4    5 1    
     8    4   75 1    
     9    5    6 1    
    10    5   35 1    
    11    5   76 1    
    12    6    7 1    
    13    6   77 1    
    14    6   78 1    
    15    7    8 1    
    16    8    9 1    
    17    8   79 1    
    18    8   80 1    
    19    9   10 ar   
    20    9   14 ar   
    21   10   11 ar   
    22   10   81 1    
    23   11   12 ar   
    24   11   71 1    
    25   12   13 ar   
    26   12   82 1    
    27   13   14 ar   
    28   13   15 1    
    29   14   83 1    
    30   15   16 1    
    31   15   84 1    
    32   15   85 1    
    33   16   17 1    
    34   17   18 1    
    35   17   86 1    
    36   17   87 1    
    37   18   19 1    
    38   18   37 1    
    39   18   88 1    
    40   19   20 am   BACKBONE|DICT|INTERRES
    41   19   89 1    
    42   20   21 2    
    43   20   22 1    
    44   22   23 1    
    45   22   24 1    
    46   22   90 1    
    47   23   91 1    
    48   23   92 1    
    49   23   93 1    
    50   24   25 am   BACKBONE|DICT|INTERRES
    51   24   94 1    
    52   25   26 2    
    53   25   27 1    
    54   27   28 1    
    55   27   29 1    
    56   27   95 1    
    57   28   96 1    
    58   28   97 1    
    59   28   98 1    
    60   29   30 am   BACKBONE|DICT|INTERRES
    61   29   99 1    
    62   30   31 2    
    63   30   32 1    
    64   32   33 1    
    65   32   34 1    
    66   32  100 1    
    67   33  101 1    
    68   33  102 1    
    69   33  103 1    
    70   34   35 am   BACKBONE|DICT|INTERRES
    71   34  104 1    
    72   35   36 2    
    73   37   38 2    
    74   37   39 am   BACKBONE|DICT|INTERRES
    75   39   40 1    
    76   39  105 1    
    77   40   41 1    
    78   40   42 1    
    79   40  106 1    
    80   41  107 1    
    81   41  108 1    
    82   41  109 1    
    83   42   43 2    
    84   42   44 am   BACKBONE|DICT|INTERRES
    85   44   45 1    
    86   44  110 1    
    87   45   46 1    
    88   45   47 1    
    89   45  111 1    
    90   46  112 1    
    91   46  113 1    
    92   46  114 1    
    93   47   48 2    
    94   47   49 am   BACKBONE|DICT|INTERRES
    95   49   50 1    
    96   49  115 1    
    97   50   51 1    
    98   50   52 1    
    99   50  116 1    
   100   51  117 1    
   101   51  118 1    
   102   51  119 1    
   103   52   53 2    
   104   52   54 am   BACKBONE|DICT|INTERRES
   105   54   55 1    
   106   54  120 1    
   107   55   56 1    
   108   55   57 1    
   109   55  121 1    
   110   56  122 1    
   111   56  123 1    
   112   56  124 1    
   113   57   58 2    
   114   57   59 am   BACKBONE|DICT|INTERRES
   115   59   60 1    
   116   59  125 1    
   117   60   61 1    
   118   60   62 1    
   119   60  126 1    
   120   61  127 1    
   121   61  128 1    
   122   61  129 1    
   123   62   63 2    
   124   62   64 am   BACKBONE|DICT|INTERRES
   125   64   65 1    
   126   64  130 1    
   127   65   66 1    
   128   65   69 1    
   129   65  131 1    
   130   66   67 am   BACKBONE|DICT|INTERRES
   131   66   68 2    
   132   67  132 1    
   133   67  133 1    
   134   69   70 1    
   135   69  134 1    
   136   69  135 1    
   137   70   71 1    
   138   71  136 1    
   139   71  137 1    
@<TRIPOS>SUBSTRUCTURE
     1 UNK         1 GROUP             0       ****    0 ROOT    
