@<TRIPOS>MOLECULE
3R136
137   139    1
SMALL
USER_CHARGES


@<TRIPOS>ATOM
      1 CA         31.9461   26.0891   -2.4758 C.3       0 UNK        -0.1979 
      2 C          30.5280   25.9269   -1.9511 C.2       0 UNK         0.4864 
      3 O          29.7701   26.8973   -1.9262 O.2       0 UNK        -0.5359 
      4 N          30.1579   24.7073   -1.5361 N.am      1 UNK        -0.4318 
      5 CA         28.8545   24.3455   -0.9619 C.3       1 UNK         0.0824 
      6 C6         28.9536   23.0355   -0.1236 C.3       12 UNK        -0.0944 
      7 S7         29.3063   23.4068    1.6205 S.3       12 UNK        -0.2672 
      8 C8         31.0706   22.9979    1.8155 C.3       12 UNK         0.0333 
      9 C9         31.6571   23.7715    2.9904 C.ar      12 UNK        -0.0807 
     10 C10        32.7416   24.6332    2.8009 C.ar      12 UNK        -0.0894 
     11 C11        33.1860   25.4567    3.8411 C.ar      12 UNK        -0.0804 
     12 C12        32.5509   25.3945    5.0853 C.ar      12 UNK        -0.0824 
     13 C13        31.4906   24.5107    5.2984 C.ar      12 UNK        -0.0762 
     14 C14        31.0658   23.6852    4.2548 C.ar      12 UNK        -0.0782 
     15 C15        30.7743   24.4741    6.6401 C.3       12 UNK         0.0230 
     16 S16        29.0163   24.9338    6.4849 S.3       12 UNK        -0.2608 
     17 C17        29.1106   26.6880    5.9809 C.3       12 UNK        -0.0989 
     18 CA         28.8785   26.9237    4.4635 C.3       5 UNK         0.0716 
     19 N          27.6911   26.2190    3.9638 N.am      5 UNK        -0.4135 
     20 C          27.2550   26.1835    2.6962 C.2       4 UNK         0.5031 
     21 O          27.7870   26.8027    1.7700 O.2       4 UNK        -0.5229 
     22 CA         26.0312   25.2801    2.4290 C.3       4 UNK         0.0329 
     23 CB         25.0155   25.2728    3.5955 C.3       4 UNK        -0.2001 
     24 N          25.3482   25.5743    1.1630 N.am      4 UNK        -0.4303 
     25 C          24.7399   26.7169    0.8110 C.2       3 UNK         0.5044 
     26 O          24.6942   27.7291    1.5132 O.2       3 UNK        -0.5152 
     27 CA         24.1165   26.7154   -0.5921 C.3       3 UNK         0.0319 
     28 CB         23.3251   27.9973   -0.9228 C.3       3 UNK        -0.2001 
     29 N          25.1873   26.4984   -1.5604 N.am      3 UNK        -0.4354 
     30 C          25.0602   25.9495   -2.7749 C.2       2 UNK         0.4964 
     31 O          23.9852   25.6072   -3.2677 O.2       2 UNK        -0.5047 
     32 CA         26.3633   25.7256   -3.5648 C.3       2 UNK         0.0288 
     33 CB         26.6732   26.9400   -4.4547 C.3       2 UNK        -0.2113 
     34 N          27.5052   25.4679   -2.6826 N.am      2 UNK        -0.4145 
     35 C          27.7222   24.3246   -2.0191 C.2       1 UNK         0.5006 
     36 O          27.0523   23.3066   -2.2033 O.2       1 UNK        -0.5103 
     37 C          28.8570   28.4394    4.1750 C.2       5 UNK         0.5055 
     38 O          29.9222   29.0376    4.0237 O.2       5 UNK        -0.5220 
     39 N          27.6548   29.0313    4.1041 N.am      6 UNK        -0.4450 
     40 CA         27.4262   30.4431    3.7940 C.3       6 UNK         0.0367 
     41 CB         25.9396   30.7788    3.9927 C.3       6 UNK        -0.1929 
     42 C          27.8832   30.8237    2.3771 C.2       6 UNK         0.5070 
     43 O          28.5400   31.8515    2.2133 O.2       6 UNK        -0.5237 
     44 N          27.5729   29.9730    1.3873 N.am      7 UNK        -0.4739 
     45 CA         28.0152   30.1367   -0.0029 C.3       7 UNK         0.0276 
     46 CB         27.2591   29.1525   -0.9044 C.3       7 UNK        -0.1927 
     47 C          29.5302   29.9405   -0.1622 C.2       7 UNK         0.5013 
     48 O          30.1520   30.6177   -0.9811 O.2       7 UNK        -0.5193 
     49 N          30.0920   29.0441    0.6572 N.am      8 UNK        -0.4253 
     50 CA         31.5216   28.7524    0.7309 C.3       8 UNK         0.0242 
     51 CB         31.6915   27.3497    1.3235 C.3       8 UNK        -0.2000 
     52 C          32.3252   29.7880    1.5443 C.2       8 UNK         0.4948 
     53 O          33.5484   29.6636    1.6136 O.2       8 UNK        -0.5275 
     54 N          31.6387   30.7710    2.1486 N.am      9 UNK        -0.4246 
     55 CA         32.1664   31.8529    2.9859 C.3       9 UNK         0.0261 
     56 CB         33.0641   32.8016    2.1626 C.3       9 UNK        -0.1959 
     57 C          32.8396   31.3530    4.2794 C.2       9 UNK         0.5033 
     58 O          33.8636   31.9035    4.6893 O.2       9 UNK        -0.5390 
     59 N          32.2498   30.3223    4.9034 N.am      10 UNK        -0.4215 
     60 CA         32.5752   29.7072    6.2007 C.3       10 UNK         0.0240 
     61 CB         32.3932   30.7186    7.3489 C.3       10 UNK        -0.1982 
     62 C          33.9396   28.9965    6.3103 C.2       10 UNK         0.4970 
     63 O          34.0228   28.0256    7.0625 O.2       10 UNK        -0.4916 
     64 N          34.9539   29.4704    5.5747 N.am      11 UNK        -0.4279 
     65 CA         36.3413   28.9788    5.5046 C.3       11 UNK         0.1003 
     66 C          37.0228   28.7325    6.8867 C.2       11 UNK         0.5709 
     67 N          37.8707   27.7216    7.0263 N.am      11 UNK        -0.7358 
     68 O          36.8396   29.5073    7.8243 O.2       11 UNK        -0.4999 
     69 C69        36.5522   27.8781    4.4181 C.3       12 UNK        -0.0954 
     70 S70        35.6979   26.2919    4.7173 S.3       12 UNK        -0.2268 
     71 C71        34.2817   26.4839    3.5928 C.3       12 UNK         0.0203 
     72 H72        31.9258   26.4564   -3.5014 H         1 UNK         0.0888 
     73 H73        32.4896   26.8099   -1.8662 H         1 UNK         0.0888 
     74 H74        32.4970   25.1490   -2.4617 H         1 UNK         0.0888 
     75 H75        30.8163   23.9465   -1.6193 H         1 UNK         0.3017 
     76 H76        28.5682   25.1554   -0.2861 H         1 UNK         0.0873 
     77 H77        29.6932   22.3440   -0.5305 H         1 UNK         0.0745 
     78 H78        28.0141   22.4811   -0.1042 H         1 UNK         0.0745 
     79 H79        31.6012   23.2395    0.8934 H         1 UNK         0.0705 
     80 H80        31.1848   21.9258    1.9804 H         1 UNK         0.0705 
     81 H81        33.2033   24.7046    1.8258 H         1 UNK         0.1334 
     82 H82        32.8759   26.0470    5.8830 H         1 UNK         0.1417 
     83 H83        30.2249   23.0224    4.4089 H         1 UNK         0.1562 
     84 H84        31.2571   25.1328    7.3639 H         1 UNK         0.0748 
     85 H85        30.8409   23.4654    7.0498 H         1 UNK         0.0748 
     86 H86        30.0782   27.0936    6.2828 H         1 UNK         0.0940 
     87 H87        28.3658   27.2287    6.5687 H         1 UNK         0.0940 
     88 H88        29.7314   26.5095    3.9220 H         1 UNK         0.0703 
     89 H89        27.2137   25.6518    4.6490 H         1 UNK         0.3081 
     90 H90        26.4230   24.2674    2.3256 H         1 UNK         0.0719 
     91 H91        24.6797   26.2794    3.8483 H         1 UNK         0.0809 
     92 H92        24.1325   24.6852    3.3436 H         1 UNK         0.0809 
     93 H93        25.4373   24.8277    4.4971 H         1 UNK         0.0809 
     94 H94        25.3497   24.8216    0.4893 H         1 UNK         0.2990 
     95 H95        23.4256   25.8704   -0.6318 H         1 UNK         0.0690 
     96 H96        22.8644   27.9367   -1.9088 H         1 UNK         0.0788 
     97 H97        23.9547   28.8857   -0.9030 H         1 UNK         0.0788 
     98 H98        22.5225   28.1531   -0.2010 H         1 UNK         0.0788 
     99 H99        26.1150   26.7342   -1.2385 H         1 UNK         0.2993 
    100 H100       26.2168   24.8550   -4.2082 H         1 UNK         0.0949 
    101 H101       27.5642   26.7701   -5.0595 H         1 UNK         0.0767 
    102 H102       25.8492   27.1406   -5.1410 H         1 UNK         0.0767 
    103 H103       26.8353   27.8434   -3.8661 H         1 UNK         0.0767 
    104 H104       28.1592   26.2311   -2.5134 H         1 UNK         0.3013 
    105 H105       26.8345   28.4573    4.2325 H         1 UNK         0.3121 
    106 H106       28.0093   31.0375    4.5010 H         1 UNK         0.0774 
    107 H107       25.7455   31.8304    3.7766 H         1 UNK         0.0815 
    108 H108       25.2992   30.1877    3.3360 H         1 UNK         0.0815 
    109 H109       25.6253   30.5980    5.0207 H         1 UNK         0.0815 
    110 H110       27.0625   29.1267    1.6093 H         1 UNK         0.2987 
    111 H111       27.7751   31.1535   -0.3218 H         1 UNK         0.0949 
    112 H112       27.4576   28.1196   -0.6179 H         1 UNK         0.0806 
    113 H113       26.1856   29.3236   -0.8575 H         1 UNK         0.0806 
    114 H114       27.5635   29.2667   -1.9456 H         1 UNK         0.0806 
    115 H115       29.4853   28.5218    1.2763 H         1 UNK         0.3010 
    116 H116       31.9223   28.7473   -0.2847 H         1 UNK         0.0829 
    117 H117       31.0398   26.6189    0.8452 H         1 UNK         0.0813 
    118 H118       32.7171   27.0095    1.1878 H         1 UNK         0.0813 
    119 H119       31.4729   27.3370    2.3916 H         1 UNK         0.0813 
    120 H120       30.6313   30.7588    2.0505 H         1 UNK         0.3038 
    121 H121       31.2967   32.4275    3.3085 H         1 UNK         0.0769 
    122 H122       33.3405   33.6814    2.7449 H         1 UNK         0.0811 
    123 H123       32.5518   33.1546    1.2676 H         1 UNK         0.0811 
    124 H124       33.9893   32.3158    1.8510 H         1 UNK         0.0811 
    125 H125       31.4289   29.9166    4.4507 H         1 UNK         0.3204 
    126 H126       31.8231   28.9283    6.3350 H         1 UNK         0.0748 
    127 H127       32.5347   30.2379    8.3179 H         1 UNK         0.0771 
    128 H128       33.1106   31.5375    7.2867 H         1 UNK         0.0771 
    129 H129       31.3913   31.1479    7.3437 H         1 UNK         0.0771 
    130 H130       34.7677   30.3315    5.0674 H         1 UNK         0.2980 
    131 H131       36.8871   29.8456    5.1306 H         1 UNK         0.0545 
    132 H132       38.0192   27.0708    6.2711 H         1 UNK         0.3459 
    133 H133       38.3291   27.5812    7.9127 H         1 UNK         0.3459 
    134 H134       36.2343   28.2694    3.4503 H         1 UNK         0.0616 
    135 H135       37.6158   27.6694    4.2945 H         1 UNK         0.0616 
    136 H136       34.6474   26.4254    2.5667 H         1 UNK         0.0634 
    137 H137       33.8527   27.4798    3.7104 H         1 UNK         0.0634 
@<TRIPOS>BOND
     1    1    2 1    
     2    1   72 1    
     3    1   73 1    
     4    1   74 1    
     5    2    3 2    
     6    2    4 am   BACKBONE|DICT|INTERRES
     7    4    5 1    
     8    4   75 1    
     9    5    6 1    
    10    5   35 1    
    11    5   76 1    
    12    6    7 1    
    13    6   77 1    
    14    6   78 1    
    15    7    8 1    
    16    8    9 1    
    17    8   79 1    
    18    8   80 1    
    19    9   10 ar   
    20    9   14 ar   
    21   10   11 ar   
    22   10   81 1    
    23   11   12 ar   
    24   11   71 1    
    25   12   13 ar   
    26   12   82 1    
    27   13   14 ar   
    28   13   15 1    
    29   14   83 1    
    30   15   16 1    
    31   15   84 1    
    32   15   85 1    
    33   16   17 1    
    34   17   18 1    
    35   17   86 1    
    36   17   87 1    
    37   18   19 1    
    38   18   37 1    
    39   18   88 1    
    40   19   20 am   BACKBONE|DICT|INTERRES
    41   19   89 1    
    42   20   21 2    
    43   20   22 1    
    44   22   23 1    
    45   22   24 1    
    46   22   90 1    
    47   23   91 1    
    48   23   92 1    
    49   23   93 1    
    50   24   25 am   BACKBONE|DICT|INTERRES
    51   24   94 1    
    52   25   26 2    
    53   25   27 1    
    54   27   28 1    
    55   27   29 1    
    56   27   95 1    
    57   28   96 1    
    58   28   97 1    
    59   28   98 1    
    60   29   30 am   BACKBONE|DICT|INTERRES
    61   29   99 1    
    62   30   31 2    
    63   30   32 1    
    64   32   33 1    
    65   32   34 1    
    66   32  100 1    
    67   33  101 1    
    68   33  102 1    
    69   33  103 1    
    70   34   35 am   BACKBONE|DICT|INTERRES
    71   34  104 1    
    72   35   36 2    
    73   37   38 2    
    74   37   39 am   BACKBONE|DICT|INTERRES
    75   39   40 1    
    76   39  105 1    
    77   40   41 1    
    78   40   42 1    
    79   40  106 1    
    80   41  107 1    
    81   41  108 1    
    82   41  109 1    
    83   42   43 2    
    84   42   44 am   BACKBONE|DICT|INTERRES
    85   44   45 1    
    86   44  110 1    
    87   45   46 1    
    88   45   47 1    
    89   45  111 1    
    90   46  112 1    
    91   46  113 1    
    92   46  114 1    
    93   47   48 2    
    94   47   49 am   BACKBONE|DICT|INTERRES
    95   49   50 1    
    96   49  115 1    
    97   50   51 1    
    98   50   52 1    
    99   50  116 1    
   100   51  117 1    
   101   51  118 1    
   102   51  119 1    
   103   52   53 2    
   104   52   54 am   BACKBONE|DICT|INTERRES
   105   54   55 1    
   106   54  120 1    
   107   55   56 1    
   108   55   57 1    
   109   55  121 1    
   110   56  122 1    
   111   56  123 1    
   112   56  124 1    
   113   57   58 2    
   114   57   59 am   BACKBONE|DICT|INTERRES
   115   59   60 1    
   116   59  125 1    
   117   60   61 1    
   118   60   62 1    
   119   60  126 1    
   120   61  127 1    
   121   61  128 1    
   122   61  129 1    
   123   62   63 2    
   124   62   64 am   BACKBONE|DICT|INTERRES
   125   64   65 1    
   126   64  130 1    
   127   65   66 1    
   128   65   69 1    
   129   65  131 1    
   130   66   67 am   BACKBONE|DICT|INTERRES
   131   66   68 2    
   132   67  132 1    
   133   67  133 1    
   134   69   70 1    
   135   69  134 1    
   136   69  135 1    
   137   70   71 1    
   138   71  136 1    
   139   71  137 1    
@<TRIPOS>SUBSTRUCTURE
     1 UNK         1 GROUP             0       ****    0 ROOT    
