@<TRIPOS>MOLECULE
3R136
137   139    1
SMALL
USER_CHARGES


@<TRIPOS>ATOM
      1 CA         32.7315   22.0360    0.1482 C.3       0 UNK        -0.1979 
      2 C          33.5035   23.0759   -0.6613 C.2       0 UNK         0.4864 
      3 O          34.5696   22.7518   -1.1826 O.2       0 UNK        -0.5359 
      4 N          33.0377   24.3277   -0.7954 N.am      1 UNK        -0.4318 
      5 CA         31.7761   24.9094   -0.3121 C.3       1 UNK         0.0824 
      6 C6         31.5984   24.8100    1.2319 C.3       12 UNK        -0.0944 
      7 S7         30.8347   26.2950    1.9653 S.3       12 UNK        -0.2672 
      8 C8         29.8405   25.5506    3.3031 C.3       12 UNK         0.0333 
      9 C9         29.3800   26.5627    4.3488 C.ar      12 UNK        -0.0807 
     10 C10        30.2737   27.4930    4.8931 C.ar      12 UNK        -0.0894 
     11 C11        29.8548   28.4001    5.8701 C.ar      12 UNK        -0.0804 
     12 C12        28.5301   28.3726    6.3102 C.ar      12 UNK        -0.0824 
     13 C13        27.6256   27.4460    5.7827 C.ar      12 UNK        -0.0762 
     14 C14        28.0583   26.5389    4.8086 C.ar      12 UNK        -0.0782 
     15 C15        26.1833   27.4307    6.2762 C.3       12 UNK         0.0230 
     16 S16        24.9731   27.8405    4.9740 S.3       12 UNK        -0.2608 
     17 C17        25.6532   29.3786    4.2599 C.3       12 UNK        -0.0989 
     18 CA         26.2667   29.1159    2.8630 C.3       5 UNK         0.0716 
     19 N          25.2556   28.6335    1.9101 N.am      5 UNK        -0.4135 
     20 C          25.5056   28.1528    0.6865 C.2       4 UNK         0.5031 
     21 O          26.6267   28.1199    0.1744 O.2       4 UNK        -0.5229 
     22 CA         24.2954   27.6504   -0.1130 C.3       4 UNK         0.0329 
     23 CB         24.2030   28.3585   -1.4756 C.3       4 UNK        -0.2001 
     24 N          24.4296   26.2135   -0.3220 N.am      4 UNK        -0.4303 
     25 C          24.1389   25.2781    0.5933 C.2       3 UNK         0.5044 
     26 O          23.5558   25.5117    1.6524 O.2       3 UNK        -0.5152 
     27 CA         24.5988   23.8402    0.2818 C.3       3 UNK         0.0319 
     28 CB         23.4708   23.0454   -0.3955 C.3       3 UNK        -0.2001 
     29 N          25.7999   23.7994   -0.5610 N.am      3 UNK        -0.4354 
     30 C          27.0052   24.2393   -0.1731 C.2       2 UNK         0.4964 
     31 O          27.2638   24.6137    0.9729 O.2       2 UNK        -0.5047 
     32 CA         28.0817   24.3114   -1.2613 C.3       2 UNK         0.0288 
     33 CB         27.6972   25.3307   -2.3534 C.3       2 UNK        -0.2113 
     34 N          29.3487   24.7001   -0.6474 N.am      2 UNK        -0.4145 
     35 C          30.5608   24.4171   -1.1323 C.2       1 UNK         0.5006 
     36 O          30.7377   23.8073   -2.1906 O.2       1 UNK        -0.5103 
     37 C          27.0683   30.3371    2.3636 C.2       5 UNK         0.5055 
     38 O          28.1665   30.5808    2.8641 O.2       5 UNK        -0.5220 
     39 N          26.5442   31.0456    1.3517 N.am      6 UNK        -0.4450 
     40 CA         27.2191   32.1153    0.6120 C.3       6 UNK         0.0367 
     41 CB         26.2287   32.7292   -0.3911 C.3       6 UNK        -0.1929 
     42 C          28.5093   31.6730   -0.1096 C.2       6 UNK         0.5070 
     43 O          29.3301   32.5329   -0.4300 O.2       6 UNK        -0.5237 
     44 N          28.6864   30.3607   -0.3396 N.am      7 UNK        -0.4739 
     45 CA         29.9277   29.7716   -0.8530 C.3       7 UNK         0.0276 
     46 CB         29.6844   28.2994   -1.2146 C.3       7 UNK        -0.1927 
     47 C          31.1141   29.9059    0.1211 C.2       7 UNK         0.5013 
     48 O          32.2533   29.9750   -0.3390 O.2       7 UNK        -0.5193 
     49 N          30.8237   29.9582    1.4310 N.am      8 UNK        -0.4253 
     50 CA         31.6757   30.3126    2.5772 C.3       8 UNK         0.0242 
     51 CB         32.0402   31.8073    2.5105 C.3       8 UNK        -0.2000 
     52 C          32.9432   29.4730    2.8463 C.2       8 UNK         0.4948 
     53 O          33.4213   29.4907    3.9807 O.2       8 UNK        -0.5275 
     54 N          33.4779   28.7773    1.8359 N.am      9 UNK        -0.4246 
     55 CA         34.7906   28.1199    1.8069 C.3       9 UNK         0.0261 
     56 CB         34.9261   27.3296    0.4971 C.3       9 UNK        -0.1959 
     57 C          35.1354   27.2206    3.0067 C.2       9 UNK         0.5033 
     58 O          36.2897   27.2217    3.4383 O.2       9 UNK        -0.5390 
     59 N          34.1443   26.4949    3.5445 N.am      10 UNK        -0.4215 
     60 CA         34.3143   25.6217    4.7127 C.3       10 UNK         0.0240 
     61 CB         33.0692   24.7432    4.9018 C.3       10 UNK        -0.1982 
     62 C          34.6343   26.3717    6.0197 C.2       10 UNK         0.4970 
     63 O          35.2092   25.7616    6.9224 O.2       10 UNK        -0.4916 
     64 N          34.2717   27.6587    6.1041 N.am      11 UNK        -0.4279 
     65 CA         34.5774   28.5325    7.2471 C.3       11 UNK         0.1003 
     66 C          35.9567   29.2449    7.1248 C.2       11 UNK         0.5709 
     67 N          36.7249   29.0496    6.0574 N.am      11 UNK        -0.7358 
     68 O          36.3501   29.9790    8.0284 O.2       11 UNK        -0.4999 
     69 C69        33.4316   29.5403    7.5363 C.3       12 UNK        -0.0954 
     70 S70        31.8189   28.7171    7.7923 S.3       12 UNK        -0.2268 
     71 C71        30.8312   29.4187    6.4357 C.3       12 UNK         0.0203 
     72 H72        31.6674   22.0449   -0.0793 H         1 UNK         0.0888 
     73 H73        33.0995   21.0351   -0.0766 H         1 UNK         0.0888 
     74 H74        32.8677   22.2051    1.2156 H         1 UNK         0.0888 
     75 H75        33.5778   24.9524   -1.3769 H         1 UNK         0.3017 
     76 H76        31.8700   25.9663   -0.5661 H         1 UNK         0.0873 
     77 H77        31.0352   23.9187    1.5149 H         1 UNK         0.0745 
     78 H78        32.5732   24.7066    1.7093 H         1 UNK         0.0745 
     79 H79        28.9828   25.0493    2.8556 H         1 UNK         0.0705 
     80 H80        30.4154   24.7722    3.8027 H         1 UNK         0.0705 
     81 H81        31.3008   27.5142    4.5590 H         1 UNK         0.1334 
     82 H82        28.2048   29.0758    7.0648 H         1 UNK         0.1417 
     83 H83        27.3576   25.8214    4.4024 H         1 UNK         0.1562 
     84 H84        26.0503   28.1284    7.1046 H         1 UNK         0.0748 
     85 H85        25.9524   26.4411    6.6729 H         1 UNK         0.0748 
     86 H86        26.3934   29.7998    4.9430 H         1 UNK         0.0940 
     87 H87        24.8530   30.1182    4.1961 H         1 UNK         0.0940 
     88 H88        27.0013   28.3148    2.9613 H         1 UNK         0.0703 
     89 H89        24.3102   28.5896    2.2631 H         1 UNK         0.3081 
     90 H90        23.3761   27.8526    0.4412 H         1 UNK         0.0719 
     91 H91        25.0908   28.1859   -2.0859 H         1 UNK         0.0809 
     92 H92        23.3366   28.0157   -2.0416 H         1 UNK         0.0809 
     93 H93        24.1006   29.4370   -1.3485 H         1 UNK         0.0809 
     94 H94        24.9394   25.9279   -1.1441 H         1 UNK         0.2990 
     95 H95        24.8360   23.3575    1.2324 H         1 UNK         0.0690 
     96 H96        23.7579   22.0058   -0.5552 H         1 UNK         0.0788 
     97 H97        23.1975   23.4720   -1.3615 H         1 UNK         0.0788 
     98 H98        22.5727   23.0400    0.2239 H         1 UNK         0.0788 
     99 H99        25.6749   23.4891   -1.5143 H         1 UNK         0.2993 
    100 H100       28.1842   23.3167   -1.7012 H         1 UNK         0.0949 
    101 H101       27.4714   26.3081   -1.9251 H         1 UNK         0.0767 
    102 H102       28.4991   25.4619   -3.0802 H         1 UNK         0.0767 
    103 H103       26.8165   25.0063   -2.9082 H         1 UNK         0.0767 
    104 H104       29.2543   25.1566    0.2535 H         1 UNK         0.3013 
    105 H105       25.6370   30.7679    1.0082 H         1 UNK         0.3121 
    106 H106       27.5023   32.8847    1.3332 H         1 UNK         0.0774 
    107 H107       25.8940   31.9969   -1.1270 H         1 UNK         0.0815 
    108 H108       26.6885   33.5534   -0.9385 H         1 UNK         0.0815 
    109 H109       25.3485   33.1299    0.1119 H         1 UNK         0.0815 
    110 H110       27.9507   29.7103   -0.0803 H         1 UNK         0.2987 
    111 H111       30.1987   30.3060   -1.7662 H         1 UNK         0.0949 
    112 H112       29.3620   27.7190   -0.3494 H         1 UNK         0.0806 
    113 H113       28.9174   28.2084   -1.9831 H         1 UNK         0.0806 
    114 H114       30.5904   27.8364   -1.6065 H         1 UNK         0.0806 
    115 H115       29.8429   29.8749    1.6743 H         1 UNK         0.3010 
    116 H116       31.0319   30.1729    3.4451 H         1 UNK         0.0829 
    117 H117       32.5888   32.1187    3.4006 H         1 UNK         0.0813 
    118 H118       32.6660   32.0313    1.6459 H         1 UNK         0.0813 
    119 H119       31.1465   32.4287    2.4475 H         1 UNK         0.0813 
    120 H120       33.0317   28.9172    0.9328 H         1 UNK         0.3038 
    121 H121       35.5314   28.9216    1.7929 H         1 UNK         0.0769 
    122 H122       34.1847   26.5346    0.4381 H         1 UNK         0.0811 
    123 H123       35.9104   26.8658    0.4175 H         1 UNK         0.0811 
    124 H124       34.8003   27.9742   -0.3731 H         1 UNK         0.0811 
    125 H125       33.2205   26.5687    3.1416 H         1 UNK         0.3204 
    126 H126       35.1600   24.9623    4.5058 H         1 UNK         0.0748 
    127 H127       33.2244   24.0218    5.7053 H         1 UNK         0.0771 
    128 H128       32.1985   25.3383    5.1735 H         1 UNK         0.0771 
    129 H129       32.8360   24.1729    4.0037 H         1 UNK         0.0771 
    130 H130       33.8582   28.1240    5.3014 H         1 UNK         0.2980 
    131 H131       34.6633   27.9076    8.1378 H         1 UNK         0.0545 
    132 H132       37.6164   29.5155    6.0031 H         1 UNK         0.3459 
    133 H133       36.4291   28.4391    5.3073 H         1 UNK         0.3459 
    134 H134       33.6491   30.1092    8.4418 H         1 UNK         0.0616 
    135 H135       33.3623   30.2750    6.7328 H         1 UNK         0.0616 
    136 H136       30.3017   30.3003    6.7996 H         1 UNK         0.0634 
    137 H137       31.4827   29.7679    5.6391 H         1 UNK         0.0634 
@<TRIPOS>BOND
     1    1    2 1    
     2    1   72 1    
     3    1   73 1    
     4    1   74 1    
     5    2    3 2    
     6    2    4 am   BACKBONE|DICT|INTERRES
     7    4    5 1    
     8    4   75 1    
     9    5    6 1    
    10    5   35 1    
    11    5   76 1    
    12    6    7 1    
    13    6   77 1    
    14    6   78 1    
    15    7    8 1    
    16    8    9 1    
    17    8   79 1    
    18    8   80 1    
    19    9   10 ar   
    20    9   14 ar   
    21   10   11 ar   
    22   10   81 1    
    23   11   12 ar   
    24   11   71 1    
    25   12   13 ar   
    26   12   82 1    
    27   13   14 ar   
    28   13   15 1    
    29   14   83 1    
    30   15   16 1    
    31   15   84 1    
    32   15   85 1    
    33   16   17 1    
    34   17   18 1    
    35   17   86 1    
    36   17   87 1    
    37   18   19 1    
    38   18   37 1    
    39   18   88 1    
    40   19   20 am   BACKBONE|DICT|INTERRES
    41   19   89 1    
    42   20   21 2    
    43   20   22 1    
    44   22   23 1    
    45   22   24 1    
    46   22   90 1    
    47   23   91 1    
    48   23   92 1    
    49   23   93 1    
    50   24   25 am   BACKBONE|DICT|INTERRES
    51   24   94 1    
    52   25   26 2    
    53   25   27 1    
    54   27   28 1    
    55   27   29 1    
    56   27   95 1    
    57   28   96 1    
    58   28   97 1    
    59   28   98 1    
    60   29   30 am   BACKBONE|DICT|INTERRES
    61   29   99 1    
    62   30   31 2    
    63   30   32 1    
    64   32   33 1    
    65   32   34 1    
    66   32  100 1    
    67   33  101 1    
    68   33  102 1    
    69   33  103 1    
    70   34   35 am   BACKBONE|DICT|INTERRES
    71   34  104 1    
    72   35   36 2    
    73   37   38 2    
    74   37   39 am   BACKBONE|DICT|INTERRES
    75   39   40 1    
    76   39  105 1    
    77   40   41 1    
    78   40   42 1    
    79   40  106 1    
    80   41  107 1    
    81   41  108 1    
    82   41  109 1    
    83   42   43 2    
    84   42   44 am   BACKBONE|DICT|INTERRES
    85   44   45 1    
    86   44  110 1    
    87   45   46 1    
    88   45   47 1    
    89   45  111 1    
    90   46  112 1    
    91   46  113 1    
    92   46  114 1    
    93   47   48 2    
    94   47   49 am   BACKBONE|DICT|INTERRES
    95   49   50 1    
    96   49  115 1    
    97   50   51 1    
    98   50   52 1    
    99   50  116 1    
   100   51  117 1    
   101   51  118 1    
   102   51  119 1    
   103   52   53 2    
   104   52   54 am   BACKBONE|DICT|INTERRES
   105   54   55 1    
   106   54  120 1    
   107   55   56 1    
   108   55   57 1    
   109   55  121 1    
   110   56  122 1    
   111   56  123 1    
   112   56  124 1    
   113   57   58 2    
   114   57   59 am   BACKBONE|DICT|INTERRES
   115   59   60 1    
   116   59  125 1    
   117   60   61 1    
   118   60   62 1    
   119   60  126 1    
   120   61  127 1    
   121   61  128 1    
   122   61  129 1    
   123   62   63 2    
   124   62   64 am   BACKBONE|DICT|INTERRES
   125   64   65 1    
   126   64  130 1    
   127   65   66 1    
   128   65   69 1    
   129   65  131 1    
   130   66   67 am   BACKBONE|DICT|INTERRES
   131   66   68 2    
   132   67  132 1    
   133   67  133 1    
   134   69   70 1    
   135   69  134 1    
   136   69  135 1    
   137   70   71 1    
   138   71  136 1    
   139   71  137 1    
@<TRIPOS>SUBSTRUCTURE
     1 UNK         1 GROUP             0       ****    0 ROOT    
