@<TRIPOS>MOLECULE
3R136
137   139    1
SMALL
USER_CHARGES


@<TRIPOS>ATOM
      1 CA         26.6638   22.5972    3.0073 C.3       0 UNK        -0.1979 
      2 C          27.9688   22.9427    2.3081 C.2       0 UNK         0.4864 
      3 O          28.1314   24.0661    1.8251 O.2       0 UNK        -0.5359 
      4 N          28.8860   21.9672    2.2355 N.am      1 UNK        -0.4318 
      5 CA         30.1547   22.0331    1.4991 C.3       1 UNK         0.0824 
      6 C6         31.1556   23.0647    2.1018 C.3       12 UNK        -0.0944 
      7 S7         32.0081   22.4409    3.5941 S.3       12 UNK        -0.2672 
      8 C8         30.7857   22.6026    4.9474 C.3       12 UNK         0.0333 
      9 C9         30.2628   24.0151    5.2027 C.ar      12 UNK        -0.0807 
     10 C10        31.0665   25.1442    5.0178 C.ar      12 UNK        -0.0894 
     11 C11        30.5487   26.4283    5.2110 C.ar      12 UNK        -0.0804 
     12 C12        29.2355   26.5820    5.6645 C.ar      12 UNK        -0.0824 
     13 C13        28.4261   25.4621    5.8740 C.ar      12 UNK        -0.0762 
     14 C14        28.9478   24.1851    5.6468 C.ar      12 UNK        -0.0782 
     15 C15        26.9831   25.6197    6.3306 C.3       12 UNK         0.0230 
     16 S16        25.8201   25.4604    4.9362 S.3       12 UNK        -0.2608 
     17 C17        25.7796   27.1533    4.2604 C.3       12 UNK        -0.0989 
     18 CA         26.8064   27.4047    3.1214 C.3       5 UNK         0.0716 
     19 N          26.6569   26.5055    1.9730 N.am      5 UNK        -0.4135 
     20 C          25.6549   26.4639    1.0844 C.2       4 UNK         0.5031 
     21 O          24.6679   27.2016    1.1060 O.2       4 UNK        -0.5229 
     22 CA         25.8107   25.4053   -0.0256 C.3       4 UNK         0.0329 
     23 CB         24.6221   25.3632   -1.0111 C.3       4 UNK        -0.2001 
     24 N          27.0934   25.5490   -0.7290 N.am      4 UNK        -0.4303 
     25 C          27.4898   26.5874   -1.4820 C.2       3 UNK         0.5044 
     26 O          26.7766   27.5560   -1.7458 O.2       3 UNK        -0.5152 
     27 CA         28.9311   26.5767   -2.0257 C.3       3 UNK         0.0319 
     28 CB         29.7369   27.7390   -1.4263 C.3       3 UNK        -0.2001 
     29 N          29.6637   25.3278   -1.7979 N.am      3 UNK        -0.4354 
     30 C          29.5469   24.2281   -2.5544 C.2       2 UNK         0.4964 
     31 O          28.7422   24.1132   -3.4791 O.2       2 UNK        -0.5047 
     32 CA         30.4960   23.0647   -2.2304 C.3       2 UNK         0.0288 
     33 CB         31.8612   23.2722   -2.9081 C.3       2 UNK        -0.2113 
     34 N          30.6808   22.8970   -0.7852 N.am      2 UNK        -0.4145 
     35 C          29.8683   22.1539   -0.0211 C.2       1 UNK         0.5006 
     36 O          28.9147   21.5243   -0.4898 O.2       1 UNK        -0.5103 
     37 C          26.8371   28.8914    2.7053 C.2       5 UNK         0.5055 
     38 O          25.8880   29.6301    2.9781 O.2       5 UNK        -0.5220 
     39 N          27.9449   29.3181    2.0809 N.am      6 UNK        -0.4450 
     40 CA         28.2284   30.7332    1.8022 C.3       6 UNK         0.0367 
     41 CB         29.4103   30.8512    0.8265 C.3       6 UNK        -0.1929 
     42 C          28.5002   31.5558    3.0775 C.2       6 UNK         0.5070 
     43 O          28.2268   32.7561    3.0885 O.2       6 UNK        -0.5237 
     44 N          29.0321   30.8969    4.1195 N.am      7 UNK        -0.4739 
     45 CA         29.3190   31.3663    5.4848 C.3       7 UNK         0.0276 
     46 CB         28.0337   31.8284    6.1971 C.3       7 UNK        -0.1927 
     47 C          30.4276   32.4289    5.5963 C.2       7 UNK         0.5013 
     48 O          31.2782   32.3179    6.4786 O.2       7 UNK        -0.5193 
     49 N          30.4244   33.4186    4.6982 N.am      8 UNK        -0.4253 
     50 CA         31.4153   34.4935    4.5933 C.3       8 UNK         0.0242 
     51 CB         30.6975   35.7778    4.1376 C.3       8 UNK        -0.2000 
     52 C          32.5851   34.1186    3.6592 C.2       8 UNK         0.4948 
     53 O          33.1605   34.9993    3.0170 O.2       8 UNK        -0.5275 
     54 N          32.9118   32.8248    3.5809 N.am      9 UNK        -0.4246 
     55 CA         33.9413   32.2329    2.7342 C.3       9 UNK         0.0261 
     56 CB         33.4315   32.1448    1.2799 C.3       9 UNK        -0.1959 
     57 C          34.2804   30.8442    3.2930 C.2       9 UNK         0.5033 
     58 O          33.6387   30.3932    4.2455 O.2       9 UNK        -0.5390 
     59 N          35.2603   30.1752    2.6700 N.am      10 UNK        -0.4215 
     60 CA         35.6331   28.7840    2.9595 C.3       10 UNK         0.0240 
     61 CB         36.9970   28.4839    2.3152 C.3       10 UNK        -0.1982 
     62 C          34.5815   27.7519    2.5011 C.2       10 UNK         0.4970 
     63 O          34.6111   26.6184    2.9804 O.2       10 UNK        -0.4916 
     64 N          33.6872   28.1629    1.5901 N.am      11 UNK        -0.4279 
     65 CA         32.5504   27.3963    1.0516 C.3       11 UNK         0.1003 
     66 C          32.9355   26.2205    0.1064 C.2       11 UNK         0.5709 
     67 N          34.1646   26.1375   -0.3862 N.am      11 UNK        -0.7358 
     68 O          32.0926   25.3847   -0.2123 O.2       11 UNK        -0.4999 
     69 C69        31.5295   26.9488    2.1346 C.3       12 UNK        -0.0954 
     70 S70        30.9631   28.2957    3.2278 S.3       12 UNK        -0.2268 
     71 C71        31.3920   27.6488    4.8754 C.3       12 UNK         0.0203 
     72 H72        26.3547   21.5769    2.7820 H         1 UNK         0.0888 
     73 H73        26.7734   22.6935    4.0859 H         1 UNK         0.0888 
     74 H74        25.8670   23.2673    2.6864 H         1 UNK         0.0888 
     75 H75        28.6652   21.0605    2.6215 H         1 UNK         0.3017 
     76 H76        30.6075   21.0454    1.5986 H         1 UNK         0.0873 
     77 H77        30.6787   24.0217    2.3138 H         1 UNK         0.0745 
     78 H78        31.9646   23.2840    1.4061 H         1 UNK         0.0745 
     79 H79        31.2512   22.2453    5.8666 H         1 UNK         0.0705 
     80 H80        29.9580   21.9221    4.7471 H         1 UNK         0.0705 
     81 H81        32.0883   25.0269    4.6852 H         1 UNK         0.1334 
     82 H82        28.8341   27.5739    5.8198 H         1 UNK         0.1417 
     83 H83        28.3197   23.3200    5.8081 H         1 UNK         0.1562 
     84 H84        26.8352   26.5714    6.8428 H         1 UNK         0.0748 
     85 H85        26.7527   24.8460    7.0645 H         1 UNK         0.0748 
     86 H86        25.9348   27.8583    5.0792 H         1 UNK         0.0940 
     87 H87        24.7661   27.3404    3.9004 H         1 UNK         0.0940 
     88 H88        27.7959   27.1861    3.5182 H         1 UNK         0.0703 
     89 H89        27.3727   25.7854    1.8886 H         1 UNK         0.3081 
     90 H90        25.8405   24.4361    0.4728 H         1 UNK         0.0719 
     91 H91        24.7654   24.5963   -1.7721 H         1 UNK         0.0809 
     92 H92        24.4741   26.3166   -1.5186 H         1 UNK         0.0809 
     93 H93        23.6942   25.1313   -0.4870 H         1 UNK         0.0809 
     94 H94        27.7754   24.8277   -0.5350 H         1 UNK         0.2990 
     95 H95        28.8654   26.7406   -3.1036 H         1 UNK         0.0690 
     96 H96        30.7641   27.7431   -1.7910 H         1 UNK         0.0788 
     97 H97        29.7577   27.6935   -0.3377 H         1 UNK         0.0788 
     98 H98        29.2950   28.6951   -1.7075 H         1 UNK         0.0788 
     99 H99        30.3900   25.3426   -1.0874 H         1 UNK         0.2993 
    100 H100       30.0586   22.1558   -2.6500 H         1 UNK         0.0949 
    101 H101       32.3554   24.1817   -2.5659 H         1 UNK         0.0767 
    102 H102       32.5306   22.4339   -2.7140 H         1 UNK         0.0767 
    103 H103       31.7487   23.3524   -3.9901 H         1 UNK         0.0767 
    104 H104       31.4101   23.4564   -0.3564 H         1 UNK         0.3013 
    105 H105       28.6843   28.6574    1.8893 H         1 UNK         0.3121 
    106 H106       27.3493   31.1665    1.3200 H         1 UNK         0.0774 
    107 H107       29.6602   31.8969    0.6407 H         1 UNK         0.0815 
    108 H108       30.3087   30.3669    1.2081 H         1 UNK         0.0815 
    109 H109       29.1684   30.4073   -0.1375 H         1 UNK         0.0815 
    110 H110       29.2918   29.9348    3.9478 H         1 UNK         0.2987 
    111 H111       29.6860   30.4892    6.0205 H         1 UNK         0.0949 
    112 H112       27.2758   31.0449    6.1938 H         1 UNK         0.0806 
    113 H113       28.2355   32.0804    7.2391 H         1 UNK         0.0806 
    114 H114       27.6021   32.7134    5.7285 H         1 UNK         0.0806 
    115 H115       29.6812   33.4024    4.0020 H         1 UNK         0.3010 
    116 H116       31.8463   34.6837    5.5785 H         1 UNK         0.0829 
    117 H117       29.8824   36.0373    4.8134 H         1 UNK         0.0813 
    118 H118       31.3813   36.6275    4.1196 H         1 UNK         0.0813 
    119 H119       30.2807   35.6705    3.1353 H         1 UNK         0.0813 
    120 H120       32.4646   32.1579    4.2004 H         1 UNK         0.3038 
    121 H121       34.8408   32.8505    2.7790 H         1 UNK         0.0769 
    122 H122       33.1618   33.1272    0.8919 H         1 UNK         0.0811 
    123 H123       32.5509   31.5063    1.2022 H         1 UNK         0.0811 
    124 H124       34.1918   31.7416    0.6107 H         1 UNK         0.0811 
    125 H125       35.7568   30.6290    1.9160 H         1 UNK         0.3204 
    126 H126       35.7359   28.6788    4.0418 H         1 UNK         0.0748 
    127 H127       37.3178   27.4647    2.5364 H         1 UNK         0.0771 
    128 H128       36.9646   28.5867    1.2298 H         1 UNK         0.0771 
    129 H129       37.7704   29.1525    2.6938 H         1 UNK         0.0771 
    130 H130       33.7692   29.1067    1.2467 H         1 UNK         0.2980 
    131 H131       32.0327   28.1036    0.4047 H         1 UNK         0.0545 
    132 H132       34.3957   25.3766   -1.0039 H         1 UNK         0.3459 
    133 H133       34.8638   26.8174   -0.1375 H         1 UNK         0.3459 
    134 H134       30.6399   26.5161    1.6739 H         1 UNK         0.0616 
    135 H135       31.9730   26.1512    2.7260 H         1 UNK         0.0616 
    136 H136       31.2299   28.4302    5.6189 H         1 UNK         0.0634 
    137 H137       32.4565   27.4109    4.9060 H         1 UNK         0.0634 
@<TRIPOS>BOND
     1    1    2 1    
     2    1   72 1    
     3    1   73 1    
     4    1   74 1    
     5    2    3 2    
     6    2    4 am   BACKBONE|DICT|INTERRES
     7    4    5 1    
     8    4   75 1    
     9    5    6 1    
    10    5   35 1    
    11    5   76 1    
    12    6    7 1    
    13    6   77 1    
    14    6   78 1    
    15    7    8 1    
    16    8    9 1    
    17    8   79 1    
    18    8   80 1    
    19    9   10 ar   
    20    9   14 ar   
    21   10   11 ar   
    22   10   81 1    
    23   11   12 ar   
    24   11   71 1    
    25   12   13 ar   
    26   12   82 1    
    27   13   14 ar   
    28   13   15 1    
    29   14   83 1    
    30   15   16 1    
    31   15   84 1    
    32   15   85 1    
    33   16   17 1    
    34   17   18 1    
    35   17   86 1    
    36   17   87 1    
    37   18   19 1    
    38   18   37 1    
    39   18   88 1    
    40   19   20 am   BACKBONE|DICT|INTERRES
    41   19   89 1    
    42   20   21 2    
    43   20   22 1    
    44   22   23 1    
    45   22   24 1    
    46   22   90 1    
    47   23   91 1    
    48   23   92 1    
    49   23   93 1    
    50   24   25 am   BACKBONE|DICT|INTERRES
    51   24   94 1    
    52   25   26 2    
    53   25   27 1    
    54   27   28 1    
    55   27   29 1    
    56   27   95 1    
    57   28   96 1    
    58   28   97 1    
    59   28   98 1    
    60   29   30 am   BACKBONE|DICT|INTERRES
    61   29   99 1    
    62   30   31 2    
    63   30   32 1    
    64   32   33 1    
    65   32   34 1    
    66   32  100 1    
    67   33  101 1    
    68   33  102 1    
    69   33  103 1    
    70   34   35 am   BACKBONE|DICT|INTERRES
    71   34  104 1    
    72   35   36 2    
    73   37   38 2    
    74   37   39 am   BACKBONE|DICT|INTERRES
    75   39   40 1    
    76   39  105 1    
    77   40   41 1    
    78   40   42 1    
    79   40  106 1    
    80   41  107 1    
    81   41  108 1    
    82   41  109 1    
    83   42   43 2    
    84   42   44 am   BACKBONE|DICT|INTERRES
    85   44   45 1    
    86   44  110 1    
    87   45   46 1    
    88   45   47 1    
    89   45  111 1    
    90   46  112 1    
    91   46  113 1    
    92   46  114 1    
    93   47   48 2    
    94   47   49 am   BACKBONE|DICT|INTERRES
    95   49   50 1    
    96   49  115 1    
    97   50   51 1    
    98   50   52 1    
    99   50  116 1    
   100   51  117 1    
   101   51  118 1    
   102   51  119 1    
   103   52   53 2    
   104   52   54 am   BACKBONE|DICT|INTERRES
   105   54   55 1    
   106   54  120 1    
   107   55   56 1    
   108   55   57 1    
   109   55  121 1    
   110   56  122 1    
   111   56  123 1    
   112   56  124 1    
   113   57   58 2    
   114   57   59 am   BACKBONE|DICT|INTERRES
   115   59   60 1    
   116   59  125 1    
   117   60   61 1    
   118   60   62 1    
   119   60  126 1    
   120   61  127 1    
   121   61  128 1    
   122   61  129 1    
   123   62   63 2    
   124   62   64 am   BACKBONE|DICT|INTERRES
   125   64   65 1    
   126   64  130 1    
   127   65   66 1    
   128   65   69 1    
   129   65  131 1    
   130   66   67 am   BACKBONE|DICT|INTERRES
   131   66   68 2    
   132   67  132 1    
   133   67  133 1    
   134   69   70 1    
   135   69  134 1    
   136   69  135 1    
   137   70   71 1    
   138   71  136 1    
   139   71  137 1    
@<TRIPOS>SUBSTRUCTURE
     1 UNK         1 GROUP             0       ****    0 ROOT    
