@<TRIPOS>MOLECULE
3R136
137   139    1
SMALL
USER_CHARGES


@<TRIPOS>ATOM
      1 CA         29.3494   23.2705   -4.8169 C.3       0 UNK        -0.1979 
      2 C          29.2860   24.1098   -3.5501 C.2       0 UNK         0.4864 
      3 O          28.3531   24.8968   -3.3861 O.2       0 UNK        -0.5359 
      4 N          30.2617   23.9357   -2.6459 N.am      1 UNK        -0.4318 
      5 CA         30.3939   24.6533   -1.3681 C.3       1 UNK         0.0824 
      6 C6         31.6919   24.2532   -0.6204 C.3       12 UNK        -0.0944 
      7 S7         31.7718   22.4760   -0.1898 S.3       12 UNK        -0.2672 
      8 C8         32.7905   22.4789    1.3226 C.3       12 UNK         0.0333 
      9 C9         32.2223   23.3304    2.4547 C.ar      12 UNK        -0.0807 
     10 C10        33.0366   24.2820    3.0750 C.ar      12 UNK        -0.0894 
     11 C11        32.5534   25.0511    4.1361 C.ar      12 UNK        -0.0804 
     12 C12        31.2379   24.8735    4.5752 C.ar      12 UNK        -0.0824 
     13 C13        30.4123   23.9222    3.9675 C.ar      12 UNK        -0.0762 
     14 C14        30.9099   23.1534    2.9083 C.ar      12 UNK        -0.0782 
     15 C15        28.9983   23.6892    4.4805 C.3       12 UNK         0.0230 
     16 S16        27.7602   24.6554    3.5602 S.3       12 UNK        -0.2608 
     17 C17        27.7100   26.2410    4.4573 C.3       12 UNK        -0.0989 
     18 CA         28.1731   27.4463    3.6020 C.3       5 UNK         0.0716 
     19 N          27.4302   27.5733    2.3403 N.am      5 UNK        -0.4135 
     20 C          27.6606   28.5052    1.4037 C.2       4 UNK         0.5031 
     21 O          28.5893   29.3170    1.4599 O.2       4 UNK        -0.5229 
     22 CA         26.6766   28.5694    0.2267 C.3       4 UNK         0.0329 
     23 CB         27.1714   29.4743   -0.9203 C.3       4 UNK        -0.2001 
     24 N          26.3535   27.2407   -0.2964 N.am      4 UNK        -0.4303 
     25 C          25.1799   26.9347   -0.8722 C.2       3 UNK         0.5044 
     26 O          24.2248   27.7121   -0.9136 O.2       3 UNK        -0.5152 
     27 CA         25.0245   25.5592   -1.5482 C.3       3 UNK         0.0319 
     28 CB         25.0129   25.7141   -3.0781 C.3       3 UNK        -0.2001 
     29 N          26.0657   24.6028   -1.1777 N.am      3 UNK        -0.4354 
     30 C          26.0824   23.9165   -0.0261 C.2       2 UNK         0.4964 
     31 O          25.1904   23.9869    0.8196 O.2       2 UNK        -0.5047 
     32 CA         27.2891   22.9955    0.2349 C.3       2 UNK         0.0288 
     33 CB         26.9283   21.5370   -0.0900 C.3       2 UNK        -0.2113 
     34 N          28.5072   23.3535   -0.4947 N.am      2 UNK        -0.4145 
     35 C          29.1504   24.5315   -0.4598 C.2       1 UNK         0.5006 
     36 O          28.7733   25.5072    0.1899 O.2       1 UNK        -0.5103 
     37 C          28.0384   28.7454    4.4216 C.2       5 UNK         0.5055 
     38 O          26.9137   29.2010    4.6427 O.2       5 UNK        -0.5220 
     39 N          29.1740   29.3399    4.8060 N.am      6 UNK        -0.4450 
     40 CA         29.3576   30.6332    5.4821 C.3       6 UNK         0.0367 
     41 CB         28.6398   30.6757    6.8449 C.3       6 UNK        -0.1929 
     42 C          29.0033   31.8637    4.6237 C.2       6 UNK         0.5070 
     43 O          29.6585   32.8956    4.7685 O.2       6 UNK        -0.5237 
     44 N          27.9990   31.7454    3.7453 N.am      7 UNK        -0.4739 
     45 CA         27.5567   32.7797    2.8065 C.3       7 UNK         0.0276 
     46 CB         26.2421   32.3373    2.1443 C.3       7 UNK        -0.1927 
     47 C          28.6127   33.1231    1.7420 C.2       7 UNK         0.5013 
     48 O          28.7530   34.2958    1.3916 O.2       7 UNK        -0.5193 
     49 N          29.3405   32.1055    1.2666 N.am      8 UNK        -0.4253 
     50 CA         30.4767   32.2460    0.3555 C.3       8 UNK         0.0242 
     51 CB         30.0352   32.0029   -1.0976 C.3       8 UNK        -0.2000 
     52 C          31.6107   31.2968    0.7568 C.2       8 UNK         0.4948 
     53 O          32.7646   31.7247    0.8111 O.2       8 UNK        -0.5275 
     54 N          31.2735   30.0352    1.0551 N.am      9 UNK        -0.4246 
     55 CA         32.2029   29.0268    1.5520 C.3       9 UNK         0.0261 
     56 CB         31.7179   27.6327    1.1143 C.3       9 UNK        -0.1959 
     57 C          32.2988   29.1518    3.0770 C.2       9 UNK         0.5033 
     58 O          31.5612   28.4720    3.7908 O.2       9 UNK        -0.5390 
     59 N          33.1654   30.0509    3.5524 N.am      10 UNK        -0.4215 
     60 CA         33.4790   30.2205    4.9705 C.3       10 UNK         0.0240 
     61 CB         33.7316   31.7085    5.2608 C.3       10 UNK        -0.1982 
     62 C          34.7097   29.3741    5.3206 C.2       10 UNK         0.4970 
     63 O          35.6806   29.3763    4.5601 O.2       10 UNK        -0.4916 
     64 N          34.6495   28.6781    6.4588 N.am      11 UNK        -0.4279 
     65 CA         35.7014   27.7986    6.9815 C.3       11 UNK         0.1003 
     66 C          35.4982   27.5255    8.4961 C.2       11 UNK         0.5709 
     67 N          36.4697   26.9078    9.1542 N.am      11 UNK        -0.7358 
     68 O          34.4733   27.8726    9.0830 O.2       11 UNK        -0.4999 
     69 C69        35.9008   26.5068    6.1314 C.3       12 UNK        -0.0954 
     70 S70        34.4852   25.3492    6.1006 S.3       12 UNK        -0.2268 
     71 C71        33.4575   26.0805    4.7924 C.3       12 UNK         0.0203 
     72 H72        29.4051   23.9176   -5.6918 H         1 UNK         0.0888 
     73 H73        30.2168   22.6107   -4.8267 H         1 UNK         0.0888 
     74 H74        28.4539   22.6558   -4.9040 H         1 UNK         0.0888 
     75 H75        30.9897   23.2601   -2.8323 H         1 UNK         0.3017 
     76 H76        30.4778   25.7123   -1.6217 H         1 UNK         0.0873 
     77 H77        32.5619   24.4937   -1.2333 H         1 UNK         0.0745 
     78 H78        31.7956   24.8550    0.2824 H         1 UNK         0.0745 
     79 H79        33.7953   22.8103    1.0558 H         1 UNK         0.0705 
     80 H80        32.8917   21.4521    1.6763 H         1 UNK         0.0705 
     81 H81        34.0556   24.4211    2.7401 H         1 UNK         0.1334 
     82 H82        30.8623   25.4693    5.3955 H         1 UNK         0.1417 
     83 H83        30.2769   22.4130    2.4381 H         1 UNK         0.1562 
     84 H84        28.9318   23.9064    5.5475 H         1 UNK         0.0748 
     85 H85        28.7493   22.6317    4.3794 H         1 UNK         0.0748 
     86 H86        28.3187   26.1662    5.3601 H         1 UNK         0.0940 
     87 H87        26.6837   26.3875    4.8008 H         1 UNK         0.0940 
     88 H88        29.2222   27.2935    3.3435 H         1 UNK         0.0703 
     89 H89        26.6595   26.9345    2.2150 H         1 UNK         0.3081 
     90 H90        25.7713   29.0193    0.6396 H         1 UNK         0.0719 
     91 H91        28.0909   29.0882   -1.3616 H         1 UNK         0.0809 
     92 H92        26.4284   29.5565   -1.7135 H         1 UNK         0.0809 
     93 H93        27.3710   30.4864   -0.5670 H         1 UNK         0.0809 
     94 H94        27.0985   26.5492   -0.2573 H         1 UNK         0.2990 
     95 H95        24.0561   25.1551   -1.2451 H         1 UNK         0.0690 
     96 H96        24.8725   24.7540   -3.5749 H         1 UNK         0.0788 
     97 H97        25.9427   26.1500   -3.4457 H         1 UNK         0.0788 
     98 H98        24.1995   26.3664   -3.3989 H         1 UNK         0.0788 
     99 H99        26.8471   24.5143   -1.8182 H         1 UNK         0.2993 
    100 H100       27.5214   23.0540    1.2970 H         1 UNK         0.0949 
    101 H101       26.7174   21.4008   -1.1516 H         1 UNK         0.0767 
    102 H102       27.7358   20.8574    0.1838 H         1 UNK         0.0767 
    103 H103       26.0418   21.2215    0.4623 H         1 UNK         0.0767 
    104 H104       28.9114   22.6293   -1.0704 H         1 UNK         0.3013 
    105 H105       30.0484   28.9112    4.4905 H         1 UNK         0.3121 
    106 H106       30.4274   30.7031    5.6795 H         1 UNK         0.0774 
    107 H107       28.8922   31.5886    7.3859 H         1 UNK         0.0815 
    108 H108       27.5551   30.6557    6.7383 H         1 UNK         0.0815 
    109 H109       28.9321   29.8349    7.4737 H         1 UNK         0.0815 
    110 H110       27.4886   30.8681    3.7463 H         1 UNK         0.2987 
    111 H111       27.3631   33.6883    3.3809 H         1 UNK         0.0949 
    112 H112       25.8790   33.0976    1.4513 H         1 UNK         0.0806 
    113 H113       26.3649   31.4132    1.5797 H         1 UNK         0.0806 
    114 H114       25.4595   32.1753    2.8857 H         1 UNK         0.0806 
    115 H115       29.1261   31.1674    1.5935 H         1 UNK         0.3010 
    116 H116       30.8747   33.2608    0.4267 H         1 UNK         0.0829 
    117 H117       29.2322   32.6806   -1.3876 H         1 UNK         0.0813 
    118 H118       30.8643   32.1674   -1.7869 H         1 UNK         0.0813 
    119 H119       29.6857   30.9820   -1.2491 H         1 UNK         0.0813 
    120 H120       30.2930   29.7597    1.0435 H         1 UNK         0.3038 
    121 H121       33.1958   29.1843    1.1250 H         1 UNK         0.0769 
    122 H122       30.7061   27.4198    1.4608 H         1 UNK         0.0811 
    123 H123       32.3673   26.8549    1.5172 H         1 UNK         0.0811 
    124 H124       31.7232   27.5351    0.0289 H         1 UNK         0.0811 
    125 H125       33.7304   30.5749    2.8971 H         1 UNK         0.3204 
    126 H126       32.6375   29.8916    5.5830 H         1 UNK         0.0748 
    127 H127       33.9575   31.8679    6.3160 H         1 UNK         0.0771 
    128 H128       34.5717   32.0977    4.6839 H         1 UNK         0.0771 
    129 H129       32.8540   32.3107    5.0227 H         1 UNK         0.0771 
    130 H130       33.8423   28.7526    7.0643 H         1 UNK         0.2980 
    131 H131       36.6277   28.3734    6.9238 H         1 UNK         0.0545 
    132 H132       36.3529   26.7239   10.1384 H         1 UNK         0.3459 
    133 H133       37.3152   26.6184    8.6878 H         1 UNK         0.3459 
    134 H134       36.7631   25.9520    6.5038 H         1 UNK         0.0616 
    135 H135       36.1641   26.7675    5.1059 H         1 UNK         0.0616 
    136 H136       34.0831   26.5526    4.0336 H         1 UNK         0.0634 
    137 H137       32.8585   26.8706    5.2428 H         1 UNK         0.0634 
@<TRIPOS>BOND
     1    1    2 1    
     2    1   72 1    
     3    1   73 1    
     4    1   74 1    
     5    2    3 2    
     6    2    4 am   BACKBONE|DICT|INTERRES
     7    4    5 1    
     8    4   75 1    
     9    5    6 1    
    10    5   35 1    
    11    5   76 1    
    12    6    7 1    
    13    6   77 1    
    14    6   78 1    
    15    7    8 1    
    16    8    9 1    
    17    8   79 1    
    18    8   80 1    
    19    9   10 ar   
    20    9   14 ar   
    21   10   11 ar   
    22   10   81 1    
    23   11   12 ar   
    24   11   71 1    
    25   12   13 ar   
    26   12   82 1    
    27   13   14 ar   
    28   13   15 1    
    29   14   83 1    
    30   15   16 1    
    31   15   84 1    
    32   15   85 1    
    33   16   17 1    
    34   17   18 1    
    35   17   86 1    
    36   17   87 1    
    37   18   19 1    
    38   18   37 1    
    39   18   88 1    
    40   19   20 am   BACKBONE|DICT|INTERRES
    41   19   89 1    
    42   20   21 2    
    43   20   22 1    
    44   22   23 1    
    45   22   24 1    
    46   22   90 1    
    47   23   91 1    
    48   23   92 1    
    49   23   93 1    
    50   24   25 am   BACKBONE|DICT|INTERRES
    51   24   94 1    
    52   25   26 2    
    53   25   27 1    
    54   27   28 1    
    55   27   29 1    
    56   27   95 1    
    57   28   96 1    
    58   28   97 1    
    59   28   98 1    
    60   29   30 am   BACKBONE|DICT|INTERRES
    61   29   99 1    
    62   30   31 2    
    63   30   32 1    
    64   32   33 1    
    65   32   34 1    
    66   32  100 1    
    67   33  101 1    
    68   33  102 1    
    69   33  103 1    
    70   34   35 am   BACKBONE|DICT|INTERRES
    71   34  104 1    
    72   35   36 2    
    73   37   38 2    
    74   37   39 am   BACKBONE|DICT|INTERRES
    75   39   40 1    
    76   39  105 1    
    77   40   41 1    
    78   40   42 1    
    79   40  106 1    
    80   41  107 1    
    81   41  108 1    
    82   41  109 1    
    83   42   43 2    
    84   42   44 am   BACKBONE|DICT|INTERRES
    85   44   45 1    
    86   44  110 1    
    87   45   46 1    
    88   45   47 1    
    89   45  111 1    
    90   46  112 1    
    91   46  113 1    
    92   46  114 1    
    93   47   48 2    
    94   47   49 am   BACKBONE|DICT|INTERRES
    95   49   50 1    
    96   49  115 1    
    97   50   51 1    
    98   50   52 1    
    99   50  116 1    
   100   51  117 1    
   101   51  118 1    
   102   51  119 1    
   103   52   53 2    
   104   52   54 am   BACKBONE|DICT|INTERRES
   105   54   55 1    
   106   54  120 1    
   107   55   56 1    
   108   55   57 1    
   109   55  121 1    
   110   56  122 1    
   111   56  123 1    
   112   56  124 1    
   113   57   58 2    
   114   57   59 am   BACKBONE|DICT|INTERRES
   115   59   60 1    
   116   59  125 1    
   117   60   61 1    
   118   60   62 1    
   119   60  126 1    
   120   61  127 1    
   121   61  128 1    
   122   61  129 1    
   123   62   63 2    
   124   62   64 am   BACKBONE|DICT|INTERRES
   125   64   65 1    
   126   64  130 1    
   127   65   66 1    
   128   65   69 1    
   129   65  131 1    
   130   66   67 am   BACKBONE|DICT|INTERRES
   131   66   68 2    
   132   67  132 1    
   133   67  133 1    
   134   69   70 1    
   135   69  134 1    
   136   69  135 1    
   137   70   71 1    
   138   71  136 1    
   139   71  137 1    
@<TRIPOS>SUBSTRUCTURE
     1 UNK         1 GROUP             0       ****    0 ROOT    
