@<TRIPOS>MOLECULE
3R136
137   139    1
SMALL
USER_CHARGES


@<TRIPOS>ATOM
      1 CA         32.4164   28.5267   -3.3939 C.3       0 UNK        -0.1979 
      2 C          31.3405   28.0860   -2.4132 C.2       0 UNK         0.4864 
      3 O          30.6713   28.9295   -1.8133 O.2       0 UNK        -0.5359 
      4 N          31.1484   26.7681   -2.2649 N.am      1 UNK        -0.4318 
      5 CA         30.1583   26.1290   -1.3870 C.3       1 UNK         0.0824 
      6 C6         30.6138   24.6908   -1.0075 C.3       12 UNK        -0.0944 
      7 S7         29.9944   24.1534    0.6218 S.3       12 UNK        -0.2672 
      8 C8         31.1046   22.7504    0.9766 C.3       12 UNK         0.0333 
      9 C9         31.3931   22.6747    2.4660 C.ar      12 UNK        -0.0807 
     10 C10        32.4137   23.4565    3.0132 C.ar      12 UNK        -0.0894 
     11 C11        32.6222   23.4864    4.3947 C.ar      12 UNK        -0.0804 
     12 C12        31.8255   22.6975    5.2275 C.ar      12 UNK        -0.0824 
     13 C13        30.8101   21.9016    4.6901 C.ar      12 UNK        -0.0762 
     14 C14        30.6094   21.8774    3.3052 C.ar      12 UNK        -0.0782 
     15 C15        29.8775   21.1368    5.6156 C.3       12 UNK         0.0230 
     16 S16        28.1810   21.8019    5.5579 S.3       12 UNK        -0.2608 
     17 C17        28.4172   23.5767    5.9535 C.3       12 UNK        -0.0989 
     18 CA         28.5847   24.4907    4.6993 C.3       5 UNK         0.0716 
     19 N          27.6093   24.2216    3.6391 N.am      5 UNK        -0.4135 
     20 C          26.2830   24.3843    3.7146 C.2       4 UNK         0.5031 
     21 O          25.6810   24.8205    4.6982 O.2       4 UNK        -0.5229 
     22 CA         25.4977   24.0050    2.4486 C.3       4 UNK         0.0329 
     23 CB         24.2888   23.1151    2.7867 C.3       4 UNK        -0.2001 
     24 N          25.0417   25.1772    1.6994 N.am      4 UNK        -0.4303 
     25 C          25.8278   26.1457    1.2126 C.2       3 UNK         0.5044 
     26 O          27.0474   26.2189    1.3941 O.2       3 UNK        -0.5152 
     27 CA         25.1364   27.2150    0.3642 C.3       3 UNK         0.0319 
     28 CB         24.8428   28.4720    1.1987 C.3       3 UNK        -0.2001 
     29 N          26.0602   27.5461   -0.7112 N.am      3 UNK        -0.4354 
     30 C          25.7957   27.5203   -2.0209 C.2       2 UNK         0.4964 
     31 O          24.6696   27.3592   -2.4927 O.2       2 UNK        -0.5047 
     32 CA         26.9937   27.6929   -2.9731 C.3       2 UNK         0.0288 
     33 CB         27.0216   29.1140   -3.5594 C.3       2 UNK        -0.2113 
     34 N          28.2897   27.4072   -2.3467 N.am      2 UNK        -0.4145 
     35 C          28.7399   26.1900   -2.0086 C.2       1 UNK         0.5006 
     36 O          28.0959   25.1580   -2.2082 O.2       1 UNK        -0.5103 
     37 C          28.6705   25.9942    5.0492 C.2       5 UNK         0.5055 
     38 O          28.8973   26.3383    6.2111 O.2       5 UNK        -0.5220 
     39 N          28.4793   26.8654    4.0479 N.am      6 UNK        -0.4450 
     40 CA         28.5100   28.3193    4.1835 C.3       6 UNK         0.0367 
     41 CB         27.1553   28.8261    4.7284 C.3       6 UNK        -0.1929 
     42 C          28.9366   28.9498    2.8460 C.2       6 UNK         0.5070 
     43 O          29.8315   28.4176    2.1888 O.2       6 UNK        -0.5237 
     44 N          28.3022   30.0718    2.4758 N.am      7 UNK        -0.4739 
     45 CA         28.5562   30.8918    1.2863 C.3       7 UNK         0.0276 
     46 CB         28.2300   30.1313   -0.0149 C.3       7 UNK        -0.1927 
     47 C          29.9426   31.5589    1.3253 C.2       7 UNK         0.5013 
     48 O          30.1745   32.3464    2.2462 O.2       7 UNK        -0.5193 
     49 N          30.8076   31.2938    0.3317 N.am      8 UNK        -0.4253 
     50 CA         32.0917   31.9731    0.1126 C.3       8 UNK         0.0242 
     51 CB         32.7965   31.3613   -1.1077 C.3       8 UNK        -0.2000 
     52 C          33.0058   31.9271    1.3469 C.2       8 UNK         0.4948 
     53 O          33.4638   30.8461    1.7200 O.2       8 UNK        -0.5275 
     54 N          33.1946   33.0932    1.9846 N.am      9 UNK        -0.4246 
     55 CA         33.9272   33.3102    3.2411 C.3       9 UNK         0.0261 
     56 CB         35.4434   33.1287    3.0133 C.3       9 UNK        -0.1959 
     57 C          33.4042   32.4570    4.4179 C.2       9 UNK         0.5033 
     58 O          34.1912   32.0719    5.2851 O.2       9 UNK        -0.5390 
     59 N          32.1008   32.1272    4.4009 N.am      10 UNK        -0.4215 
     60 CA         31.4213   31.1780    5.2938 C.3       10 UNK         0.0240 
     61 CB         31.2925   31.7608    6.7170 C.3       10 UNK        -0.1982 
     62 C          32.0618   29.7721    5.2700 C.2       10 UNK         0.4970 
     63 O          32.1071   29.1055    6.3029 O.2       10 UNK        -0.4916 
     64 N          32.5601   29.3784    4.0908 N.am      11 UNK        -0.4279 
     65 CA         33.3411   28.1714    3.7963 C.3       11 UNK         0.1003 
     66 C          34.8256   28.2118    4.2730 C.2       11 UNK         0.5709 
     67 N          35.3149   29.2949    4.8679 N.am      11 UNK        -0.7358 
     68 O          35.5712   27.2613    4.0481 O.2       11 UNK        -0.4999 
     69 C69        32.5628   26.8418    4.0535 C.3       12 UNK        -0.0954 
     70 S70        32.9106   25.9470    5.6136 S.3       12 UNK        -0.2268 
     71 C71        33.6695   24.4084    4.9993 C.3       12 UNK         0.0203 
     72 H72        32.0672   29.3776   -3.9782 H         1 UNK         0.0888 
     73 H73        33.3160   28.8262   -2.8579 H         1 UNK         0.0888 
     74 H74        32.6820   27.7291   -4.0873 H         1 UNK         0.0888 
     75 H75        31.7076   26.1322   -2.8157 H         1 UNK         0.3017 
     76 H76        30.1180   26.7185   -0.4669 H         1 UNK         0.0873 
     77 H77        31.7033   24.6649   -0.9505 H         1 UNK         0.0745 
     78 H78        30.3429   23.9561   -1.7682 H         1 UNK         0.0745 
     79 H79        32.0439   22.8535    0.4318 H         1 UNK         0.0705 
     80 H80        30.6440   21.8267    0.6232 H         1 UNK         0.0705 
     81 H81        33.0162   24.0753    2.3627 H         1 UNK         0.1334 
     82 H82        31.9702   22.7398    6.2986 H         1 UNK         0.1417 
     83 H83        29.8046   21.2852    2.8909 H         1 UNK         0.1562 
     84 H84        30.2361   21.1646    6.6457 H         1 UNK         0.0748 
     85 H85        29.8594   20.0859    5.3234 H         1 UNK         0.0748 
     86 H86        29.2769   23.6823    6.6176 H         1 UNK         0.0940 
     87 H87        27.5515   23.8979    6.5355 H         1 UNK         0.0940 
     88 H88        29.5538   24.2715    4.2551 H         1 UNK         0.0703 
     89 H89        28.0036   23.9152    2.7606 H         1 UNK         0.3081 
     90 H90        26.1550   23.4331    1.7897 H         1 UNK         0.0719 
     91 H91        23.5532   23.6447    3.3935 H         1 UNK         0.0809 
     92 H92        23.7893   22.7617    1.8845 H         1 UNK         0.0809 
     93 H93        24.6006   22.2340    3.3495 H         1 UNK         0.0809 
     94 H94        24.0494   25.2298    1.5205 H         1 UNK         0.2990 
     95 H95        24.2027   26.8144   -0.0365 H         1 UNK         0.0690 
     96 H96        24.3893   29.2534    0.5889 H         1 UNK         0.0788 
     97 H97        25.7493   28.8808    1.6452 H         1 UNK         0.0788 
     98 H98        24.1502   28.2487    2.0111 H         1 UNK         0.0788 
     99 H99        27.0274   27.5946   -0.4202 H         1 UNK         0.2993 
    100 H100       26.8550   26.9872   -3.7951 H         1 UNK         0.0949 
    101 H101       27.8341   29.2319   -4.2768 H         1 UNK         0.0767 
    102 H102       26.0919   29.3366   -4.0851 H         1 UNK         0.0767 
    103 H103       27.1451   29.8703   -2.7844 H         1 UNK         0.0767 
    104 H104       28.9158   28.1919   -2.1849 H         1 UNK         0.3013 
    105 H105       28.3056   26.5220    3.1070 H         1 UNK         0.3121 
    106 H106       29.2886   28.5824    4.9019 H         1 UNK         0.0774 
    107 H107       27.1744   29.8985    4.9250 H         1 UNK         0.0815 
    108 H108       26.3394   28.6211    4.0347 H         1 UNK         0.0815 
    109 H109       26.9066   28.3434    5.6737 H         1 UNK         0.0815 
    110 H110       27.6045   30.4411    3.1062 H         1 UNK         0.2987 
    111 H111       27.8510   31.7229    1.3412 H         1 UNK         0.0949 
    112 H112       27.1625   29.9299   -0.0769 H         1 UNK         0.0806 
    113 H113       28.4849   30.7176   -0.8985 H         1 UNK         0.0806 
    114 H114       28.7569   29.1807   -0.0782 H         1 UNK         0.0806 
    115 H115       30.5660   30.5726   -0.3395 H         1 UNK         0.3010 
    116 H116       31.8673   33.0158   -0.1209 H         1 UNK         0.0829 
    117 H117       32.1761   31.4254   -2.0017 H         1 UNK         0.0813 
    118 H118       33.7314   31.8808   -1.3215 H         1 UNK         0.0813 
    119 H119       33.0386   30.3115   -0.9395 H         1 UNK         0.0813 
    120 H120       32.7357   33.9126    1.6098 H         1 UNK         0.3038 
    121 H121       33.7552   34.3498    3.5236 H         1 UNK         0.0769 
    122 H122       36.0114   33.4170    3.8987 H         1 UNK         0.0811 
    123 H123       35.7983   33.7462    2.1884 H         1 UNK         0.0811 
    124 H124       35.6956   32.0914    2.7893 H         1 UNK         0.0811 
    125 H125       31.5345   32.4543    3.6200 H         1 UNK         0.3204 
    126 H126       30.4131   31.0571    4.8950 H         1 UNK         0.0748 
    127 H127       30.6764   31.1194    7.3485 H         1 UNK         0.0771 
    128 H128       32.2637   31.8596    7.2030 H         1 UNK         0.0771 
    129 H129       30.8234   32.7445    6.7014 H         1 UNK         0.0771 
    130 H130       32.5363   30.0330    3.3158 H         1 UNK         0.2980 
    131 H131       33.4415   28.2342    2.7120 H         1 UNK         0.0545 
    132 H132       34.7406   30.1140    5.0307 H         1 UNK         0.3459 
    133 H133       36.2823   29.3015    5.1473 H         1 UNK         0.3459 
    134 H134       31.4874   27.0148    4.0013 H         1 UNK         0.0616 
    135 H135       32.7712   26.1721    3.2217 H         1 UNK         0.0616 
    136 H136       34.1662   23.9044    5.8295 H         1 UNK         0.0634 
    137 H137       34.4491   24.6447    4.2734 H         1 UNK         0.0634 
@<TRIPOS>BOND
     1    1    2 1    
     2    1   72 1    
     3    1   73 1    
     4    1   74 1    
     5    2    3 2    
     6    2    4 am   BACKBONE|DICT|INTERRES
     7    4    5 1    
     8    4   75 1    
     9    5    6 1    
    10    5   35 1    
    11    5   76 1    
    12    6    7 1    
    13    6   77 1    
    14    6   78 1    
    15    7    8 1    
    16    8    9 1    
    17    8   79 1    
    18    8   80 1    
    19    9   10 ar   
    20    9   14 ar   
    21   10   11 ar   
    22   10   81 1    
    23   11   12 ar   
    24   11   71 1    
    25   12   13 ar   
    26   12   82 1    
    27   13   14 ar   
    28   13   15 1    
    29   14   83 1    
    30   15   16 1    
    31   15   84 1    
    32   15   85 1    
    33   16   17 1    
    34   17   18 1    
    35   17   86 1    
    36   17   87 1    
    37   18   19 1    
    38   18   37 1    
    39   18   88 1    
    40   19   20 am   BACKBONE|DICT|INTERRES
    41   19   89 1    
    42   20   21 2    
    43   20   22 1    
    44   22   23 1    
    45   22   24 1    
    46   22   90 1    
    47   23   91 1    
    48   23   92 1    
    49   23   93 1    
    50   24   25 am   BACKBONE|DICT|INTERRES
    51   24   94 1    
    52   25   26 2    
    53   25   27 1    
    54   27   28 1    
    55   27   29 1    
    56   27   95 1    
    57   28   96 1    
    58   28   97 1    
    59   28   98 1    
    60   29   30 am   BACKBONE|DICT|INTERRES
    61   29   99 1    
    62   30   31 2    
    63   30   32 1    
    64   32   33 1    
    65   32   34 1    
    66   32  100 1    
    67   33  101 1    
    68   33  102 1    
    69   33  103 1    
    70   34   35 am   BACKBONE|DICT|INTERRES
    71   34  104 1    
    72   35   36 2    
    73   37   38 2    
    74   37   39 am   BACKBONE|DICT|INTERRES
    75   39   40 1    
    76   39  105 1    
    77   40   41 1    
    78   40   42 1    
    79   40  106 1    
    80   41  107 1    
    81   41  108 1    
    82   41  109 1    
    83   42   43 2    
    84   42   44 am   BACKBONE|DICT|INTERRES
    85   44   45 1    
    86   44  110 1    
    87   45   46 1    
    88   45   47 1    
    89   45  111 1    
    90   46  112 1    
    91   46  113 1    
    92   46  114 1    
    93   47   48 2    
    94   47   49 am   BACKBONE|DICT|INTERRES
    95   49   50 1    
    96   49  115 1    
    97   50   51 1    
    98   50   52 1    
    99   50  116 1    
   100   51  117 1    
   101   51  118 1    
   102   51  119 1    
   103   52   53 2    
   104   52   54 am   BACKBONE|DICT|INTERRES
   105   54   55 1    
   106   54  120 1    
   107   55   56 1    
   108   55   57 1    
   109   55  121 1    
   110   56  122 1    
   111   56  123 1    
   112   56  124 1    
   113   57   58 2    
   114   57   59 am   BACKBONE|DICT|INTERRES
   115   59   60 1    
   116   59  125 1    
   117   60   61 1    
   118   60   62 1    
   119   60  126 1    
   120   61  127 1    
   121   61  128 1    
   122   61  129 1    
   123   62   63 2    
   124   62   64 am   BACKBONE|DICT|INTERRES
   125   64   65 1    
   126   64  130 1    
   127   65   66 1    
   128   65   69 1    
   129   65  131 1    
   130   66   67 am   BACKBONE|DICT|INTERRES
   131   66   68 2    
   132   67  132 1    
   133   67  133 1    
   134   69   70 1    
   135   69  134 1    
   136   69  135 1    
   137   70   71 1    
   138   71  136 1    
   139   71  137 1    
@<TRIPOS>SUBSTRUCTURE
     1 UNK         1 GROUP             0       ****    0 ROOT    
