@<TRIPOS>MOLECULE
3R136
137   139    1
SMALL
USER_CHARGES


@<TRIPOS>ATOM
      1 CA         25.2226   28.2758    2.9389 C.3       0 UNK        -0.1979 
      2 C          24.9295   26.7832    2.9737 C.2       0 UNK         0.4864 
      3 O          23.8063   26.3872    3.2906 O.2       0 UNK        -0.5359 
      4 N          25.9344   25.9547    2.6667 N.am      1 UNK        -0.4318 
      5 CA         25.8309   24.4938    2.5955 C.3       1 UNK         0.0824 
      6 C6         27.1959   23.8160    2.8942 C.3       12 UNK        -0.0944 
      7 S7         28.5253   24.3077    1.7478 S.3       12 UNK        -0.2672 
      8 C8         29.9976   23.5556    2.5264 C.3       12 UNK         0.0333 
      9 C9         31.2053   24.4764    2.4068 C.ar      12 UNK        -0.0807 
     10 C10        31.9072   24.8926    3.5434 C.ar      12 UNK        -0.0894 
     11 C11        32.9554   25.8135    3.4306 C.ar      12 UNK        -0.0804 
     12 C12        33.2772   26.3399    2.1749 C.ar      12 UNK        -0.0824 
     13 C13        32.5797   25.9335    1.0354 C.ar      12 UNK        -0.0762 
     14 C14        31.5880   24.9583    1.1531 C.ar      12 UNK        -0.0782 
     15 C15        32.8469   26.5867   -0.3132 C.3       12 UNK         0.0230 
     16 S16        31.7146   27.9923   -0.6046 S.3       12 UNK        -0.2608 
     17 C17        30.1047   27.1355   -0.7014 C.3       12 UNK        -0.0989 
     18 CA         28.9488   27.9865   -1.2787 C.3       5 UNK         0.0716 
     19 N          27.8837   27.1028   -1.7467 N.am      5 UNK        -0.4135 
     20 C          26.9629   27.3963   -2.6702 C.2       4 UNK         0.5031 
     21 O          26.9800   28.4209   -3.3553 O.2       4 UNK        -0.5229 
     22 CA         25.8169   26.3757   -2.8259 C.3       4 UNK         0.0329 
     23 CB         25.1749   26.3929   -4.2300 C.3       4 UNK        -0.2001 
     24 N          26.1928   25.0144   -2.4141 N.am      4 UNK        -0.4303 
     25 C          27.0699   24.1900   -3.0136 C.2       3 UNK         0.5044 
     26 O          27.6698   24.4696   -4.0519 O.2       3 UNK        -0.5152 
     27 CA         27.3651   22.8333   -2.3370 C.3       3 UNK         0.0319 
     28 CB         28.8202   22.7900   -1.8379 C.3       3 UNK        -0.2001 
     29 N          26.4737   22.5197   -1.2166 N.am      3 UNK        -0.4354 
     30 C          25.1815   22.1790   -1.3300 C.2       2 UNK         0.4964 
     31 O          24.6230   21.9841   -2.4098 O.2       2 UNK        -0.5047 
     32 CA         24.3572   22.0635   -0.0306 C.3       2 UNK         0.0288 
     33 CB         24.1029   20.5858    0.3110 C.3       2 UNK        -0.2113 
     34 N          24.9340   22.7310    1.1458 N.am      2 UNK        -0.4145 
     35 C          25.2263   24.0370    1.2481 C.2       1 UNK         0.5006 
     36 O          25.0775   24.8392    0.3203 O.2       1 UNK        -0.5103 
     37 C          28.3753   28.9418   -0.2122 C.2       5 UNK         0.5055 
     38 O          27.3350   28.6445    0.3820 O.2       5 UNK        -0.5220 
     39 N          29.0904   30.0425    0.0581 N.am      6 UNK        -0.4450 
     40 CA         28.7909   30.9634    1.1611 C.3       6 UNK         0.0367 
     41 CB         29.6889   32.2064    1.0558 C.3       6 UNK        -0.1929 
     42 C          28.9488   30.3037    2.5435 C.2       6 UNK         0.5070 
     43 O          28.1902   30.6280    3.4572 O.2       6 UNK        -0.5237 
     44 N          29.9179   29.3812    2.6522 N.am      7 UNK        -0.4739 
     45 CA         30.2623   28.5260    3.7944 C.3       7 UNK         0.0276 
     46 CB         29.1260   27.5376    4.1196 C.3       7 UNK        -0.1927 
     47 C          30.7324   29.2900    5.0430 C.2       7 UNK         0.5013 
     48 O          31.8824   29.1331    5.4447 O.2       7 UNK        -0.5193 
     49 N          29.8601   30.1238    5.6213 N.am      8 UNK        -0.4253 
     50 CA         30.1185   30.9222    6.8252 C.3       8 UNK         0.0242 
     51 CB         28.8042   31.5684    7.2918 C.3       8 UNK        -0.2000 
     52 C          31.2099   31.9924    6.6391 C.2       8 UNK         0.4948 
     53 O          31.8664   32.3623    7.6127 O.2       8 UNK        -0.5275 
     54 N          31.3905   32.4562    5.3961 N.am      9 UNK        -0.4246 
     55 CA         32.4223   33.4127    4.9907 C.3       9 UNK         0.0261 
     56 CB         31.8434   34.3084    3.8801 C.3       9 UNK        -0.1959 
     57 C          33.7253   32.7327    4.5211 C.2       9 UNK         0.5033 
     58 O          34.6238   33.4372    4.0572 O.2       9 UNK        -0.5390 
     59 N          33.8094   31.3991    4.6098 N.am      10 UNK        -0.4215 
     60 CA         34.9227   30.5835    4.1277 C.3       10 UNK         0.0240 
     61 CB         34.4477   29.8260    2.8729 C.3       10 UNK        -0.1982 
     62 C          35.4067   29.6303    5.2336 C.2       10 UNK         0.4970 
     63 O          34.8790   29.6566    6.3476 O.2       10 UNK        -0.4916 
     64 N          36.4164   28.8130    4.9028 N.am      11 UNK        -0.4279 
     65 CA         37.0352   27.7926    5.7730 C.3       11 UNK         0.1003 
     66 C          37.7982   28.3617    7.0105 C.2       11 UNK         0.5709 
     67 N          38.1614   29.6389    7.0324 N.am      11 UNK        -0.7358 
     68 O          38.1021   27.6316    7.9516 O.2       11 UNK        -0.4999 
     69 C69        36.0643   26.6299    6.1424 C.3       12 UNK        -0.0954 
     70 S70        35.4280   25.7409    4.6804 S.3       12 UNK        -0.2268 
     71 C71        33.6971   26.2959    4.6680 C.3       12 UNK         0.0203 
     72 H72        24.7381   28.7331    2.0767 H         1 UNK         0.0888 
     73 H73        24.8474   28.7583    3.8409 H         1 UNK         0.0888 
     74 H74        26.2914   28.4770    2.8715 H         1 UNK         0.0888 
     75 H75        26.8146   26.3365    2.3512 H         1 UNK         0.3017 
     76 H76        25.1337   24.1692    3.3712 H         1 UNK         0.0873 
     77 H77        27.1095   22.7281    2.8882 H         1 UNK         0.0745 
     78 H78        27.5069   24.0794    3.9066 H         1 UNK         0.0745 
     79 H79        30.2142   22.6021    2.0432 H         1 UNK         0.0705 
     80 H80        29.7907   23.3359    3.5748 H         1 UNK         0.0705 
     81 H81        31.6235   24.5188    4.5177 H         1 UNK         0.1334 
     82 H82        34.0602   27.0790    2.0882 H         1 UNK         0.1417 
     83 H83        31.0505   24.6312    0.2742 H         1 UNK         0.1562 
     84 H84        32.7432   25.8565   -1.1174 H         1 UNK         0.0748 
     85 H85        33.8760   26.9463   -0.3582 H         1 UNK         0.0748 
     86 H86        29.8366   26.7594    0.2877 H         1 UNK         0.0940 
     87 H87        30.2552   26.2565   -1.3311 H         1 UNK         0.0940 
     88 H88        29.3140   28.5734   -2.1244 H         1 UNK         0.0703 
     89 H89        27.7325   26.2704   -1.1977 H         1 UNK         0.3081 
     90 H90        25.0494   26.6906   -2.1171 H         1 UNK         0.0719 
     91 H91        24.7432   27.3703   -4.4489 H         1 UNK         0.0809 
     92 H92        25.9022   26.1800   -5.0137 H         1 UNK         0.0809 
     93 H93        24.3714   25.6605   -4.3079 H         1 UNK         0.0809 
     94 H94        25.7741   24.7093   -1.5394 H         1 UNK         0.2990 
     95 H95        27.2417   22.0590   -3.0970 H         1 UNK         0.0690 
     96 H96        29.5202   22.9328   -2.6624 H         1 UNK         0.0788 
     97 H97        29.0567   21.8302   -1.3784 H         1 UNK         0.0788 
     98 H98        29.0199   23.5726   -1.1060 H         1 UNK         0.0788 
     99 H99        26.8510   22.6533   -0.2895 H         1 UNK         0.2993 
    100 H100       23.3943   22.5389   -0.2296 H         1 UNK         0.0949 
    101 H101       23.6425   20.0628   -0.5287 H         1 UNK         0.0767 
    102 H102       25.0293   20.0626    0.5520 H         1 UNK         0.0767 
    103 H103       23.4270   20.4840    1.1605 H         1 UNK         0.0767 
    104 H104       25.0970   22.1401    1.9486 H         1 UNK         0.3013 
    105 H105       29.9396   30.2096   -0.4640 H         1 UNK         0.3121 
    106 H106       27.7502   31.2803    1.0633 H         1 UNK         0.0774 
    107 H107       29.4586   32.9193    1.8488 H         1 UNK         0.0815 
    108 H108       30.7465   31.9529    1.1401 H         1 UNK         0.0815 
    109 H109       29.5415   32.7233    0.1074 H         1 UNK         0.0815 
    110 H110       30.4832   29.2257    1.8288 H         1 UNK         0.2987 
    111 H111       31.1133   27.9317    3.4612 H         1 UNK         0.0949 
    112 H112       29.4228   26.8523    4.9146 H         1 UNK         0.0806 
    113 H113       28.8783   26.9309    3.2495 H         1 UNK         0.0806 
    114 H114       28.2178   28.0437    4.4469 H         1 UNK         0.0806 
    115 H115       28.9721   30.2633    5.1447 H         1 UNK         0.3010 
    116 H116       30.4634   30.2410    7.6060 H         1 UNK         0.0829 
    117 H117       28.0499   30.8145    7.5180 H         1 UNK         0.0813 
    118 H118       28.9569   32.1547    8.1992 H         1 UNK         0.0813 
    119 H119       28.3932   32.2381    6.5350 H         1 UNK         0.0813 
    120 H120       30.7990   32.0890    4.6649 H         1 UNK         0.3038 
    121 H121       32.6802   34.0507    5.8387 H         1 UNK         0.0769 
    122 H122       32.5462   35.0960    3.6050 H         1 UNK         0.0811 
    123 H123       30.9242   34.7983    4.2021 H         1 UNK         0.0811 
    124 H124       31.6240   33.7396    2.9761 H         1 UNK         0.0811 
    125 H125       33.0833   30.8800    5.0936 H         1 UNK         0.3204 
    126 H126       35.7726   31.2141    3.8589 H         1 UNK         0.0748 
    127 H127       35.2323   29.1932    2.4576 H         1 UNK         0.0771 
    128 H128       33.5870   29.1937    3.0913 H         1 UNK         0.0771 
    129 H129       34.1513   30.5202    2.0861 H         1 UNK         0.0771 
    130 H130       36.8088   28.8782    3.9751 H         1 UNK         0.2980 
    131 H131       37.8272   27.3534    5.1657 H         1 UNK         0.0545 
    132 H132       37.9329   30.2499    6.2653 H         1 UNK         0.3459 
    133 H133       38.6644   29.9945    7.8301 H         1 UNK         0.3459 
    134 H134       36.5763   25.8859    6.7549 H         1 UNK         0.0616 
    135 H135       35.2348   26.9951    6.7499 H         1 UNK         0.0616 
    136 H136       33.2031   25.9517    5.5779 H         1 UNK         0.0634 
    137 H137       33.6697   27.3834    4.6954 H         1 UNK         0.0634 
@<TRIPOS>BOND
     1    1    2 1    
     2    1   72 1    
     3    1   73 1    
     4    1   74 1    
     5    2    3 2    
     6    2    4 am   BACKBONE|DICT|INTERRES
     7    4    5 1    
     8    4   75 1    
     9    5    6 1    
    10    5   35 1    
    11    5   76 1    
    12    6    7 1    
    13    6   77 1    
    14    6   78 1    
    15    7    8 1    
    16    8    9 1    
    17    8   79 1    
    18    8   80 1    
    19    9   10 ar   
    20    9   14 ar   
    21   10   11 ar   
    22   10   81 1    
    23   11   12 ar   
    24   11   71 1    
    25   12   13 ar   
    26   12   82 1    
    27   13   14 ar   
    28   13   15 1    
    29   14   83 1    
    30   15   16 1    
    31   15   84 1    
    32   15   85 1    
    33   16   17 1    
    34   17   18 1    
    35   17   86 1    
    36   17   87 1    
    37   18   19 1    
    38   18   37 1    
    39   18   88 1    
    40   19   20 am   BACKBONE|DICT|INTERRES
    41   19   89 1    
    42   20   21 2    
    43   20   22 1    
    44   22   23 1    
    45   22   24 1    
    46   22   90 1    
    47   23   91 1    
    48   23   92 1    
    49   23   93 1    
    50   24   25 am   BACKBONE|DICT|INTERRES
    51   24   94 1    
    52   25   26 2    
    53   25   27 1    
    54   27   28 1    
    55   27   29 1    
    56   27   95 1    
    57   28   96 1    
    58   28   97 1    
    59   28   98 1    
    60   29   30 am   BACKBONE|DICT|INTERRES
    61   29   99 1    
    62   30   31 2    
    63   30   32 1    
    64   32   33 1    
    65   32   34 1    
    66   32  100 1    
    67   33  101 1    
    68   33  102 1    
    69   33  103 1    
    70   34   35 am   BACKBONE|DICT|INTERRES
    71   34  104 1    
    72   35   36 2    
    73   37   38 2    
    74   37   39 am   BACKBONE|DICT|INTERRES
    75   39   40 1    
    76   39  105 1    
    77   40   41 1    
    78   40   42 1    
    79   40  106 1    
    80   41  107 1    
    81   41  108 1    
    82   41  109 1    
    83   42   43 2    
    84   42   44 am   BACKBONE|DICT|INTERRES
    85   44   45 1    
    86   44  110 1    
    87   45   46 1    
    88   45   47 1    
    89   45  111 1    
    90   46  112 1    
    91   46  113 1    
    92   46  114 1    
    93   47   48 2    
    94   47   49 am   BACKBONE|DICT|INTERRES
    95   49   50 1    
    96   49  115 1    
    97   50   51 1    
    98   50   52 1    
    99   50  116 1    
   100   51  117 1    
   101   51  118 1    
   102   51  119 1    
   103   52   53 2    
   104   52   54 am   BACKBONE|DICT|INTERRES
   105   54   55 1    
   106   54  120 1    
   107   55   56 1    
   108   55   57 1    
   109   55  121 1    
   110   56  122 1    
   111   56  123 1    
   112   56  124 1    
   113   57   58 2    
   114   57   59 am   BACKBONE|DICT|INTERRES
   115   59   60 1    
   116   59  125 1    
   117   60   61 1    
   118   60   62 1    
   119   60  126 1    
   120   61  127 1    
   121   61  128 1    
   122   61  129 1    
   123   62   63 2    
   124   62   64 am   BACKBONE|DICT|INTERRES
   125   64   65 1    
   126   64  130 1    
   127   65   66 1    
   128   65   69 1    
   129   65  131 1    
   130   66   67 am   BACKBONE|DICT|INTERRES
   131   66   68 2    
   132   67  132 1    
   133   67  133 1    
   134   69   70 1    
   135   69  134 1    
   136   69  135 1    
   137   70   71 1    
   138   71  136 1    
   139   71  137 1    
@<TRIPOS>SUBSTRUCTURE
     1 UNK         1 GROUP             0       ****    0 ROOT    
