@<TRIPOS>MOLECULE
3R136
137   139    1
SMALL
USER_CHARGES


@<TRIPOS>ATOM
      1 CA         27.4833   18.2031   -0.2970 C.3       0 UNK        -0.1979 
      2 C          28.1133   19.5564   -0.5910 C.2       0 UNK         0.4864 
      3 O          28.1678   19.9658   -1.7514 O.2       0 UNK        -0.5359 
      4 N          28.5906   20.2508    0.4510 N.am      1 UNK        -0.4318 
      5 CA         29.2408   21.5661    0.3611 C.3       1 UNK         0.0824 
      6 C6         29.9790   21.9379    1.6707 C.3       12 UNK        -0.0944 
      7 S7         31.2145   20.6931    2.1813 S.3       12 UNK        -0.2672 
      8 C8         32.6734   21.1556    1.1906 C.3       12 UNK         0.0333 
      9 C9         33.1571   22.5656    1.4957 C.ar      12 UNK        -0.0807 
     10 C10        33.7659   22.8532    2.7208 C.ar      12 UNK        -0.0894 
     11 C11        34.1836   24.1541    3.0163 C.ar      12 UNK        -0.0804 
     12 C12        34.0054   25.1671    2.0694 C.ar      12 UNK        -0.0824 
     13 C13        33.3876   24.8926    0.8456 C.ar      12 UNK        -0.0762 
     14 C14        32.9779   23.5877    0.5588 C.ar      12 UNK        -0.0782 
     15 C15        33.1342   26.0089   -0.1574 C.3       12 UNK         0.0230 
     16 S16        31.3578   26.3923   -0.3002 S.3       12 UNK        -0.2608 
     17 C17        30.9400   26.9169    1.3986 C.3       12 UNK        -0.0989 
     18 CA         30.1608   28.2527    1.4269 C.3       5 UNK         0.0716 
     19 N          28.8949   28.1557    0.6902 N.am      5 UNK        -0.4135 
     20 C          28.2190   29.1907    0.1737 C.2       4 UNK         0.5031 
     21 O          28.5557   30.3672    0.2921 O.2       4 UNK        -0.5229 
     22 CA         26.8981   28.8621   -0.5430 C.3       4 UNK         0.0329 
     23 CB         27.1665   28.4085   -1.9867 C.3       4 UNK        -0.2001 
     24 N          26.0821   27.8545    0.1425 N.am      4 UNK        -0.4303 
     25 C          25.6893   27.9076    1.4242 C.2       3 UNK         0.5044 
     26 O          26.0022   28.8161    2.1931 O.2       3 UNK        -0.5152 
     27 CA         24.8179   26.7548    1.9514 C.3       3 UNK         0.0319 
     28 CB         23.3469   27.1931    2.0277 C.3       3 UNK        -0.2001 
     29 N          24.9159   25.5222    1.1621 N.am      3 UNK        -0.4354 
     30 C          26.0031   24.7409    1.0979 C.2       2 UNK         0.4964 
     31 O          27.0502   24.9869    1.7013 O.2       2 UNK        -0.5047 
     32 CA         25.8652   23.4823    0.2187 C.3       2 UNK         0.0288 
     33 CB         25.6239   23.8424   -1.2643 C.3       2 UNK        -0.2113 
     34 N          26.9864   22.5439    0.3649 N.am      2 UNK        -0.4145 
     35 C          28.2626   22.6958   -0.0285 C.2       1 UNK         0.5006 
     36 O          28.6869   23.6598   -0.6677 O.2       1 UNK        -0.5103 
     37 C          29.9925   28.7570    2.8793 C.2       5 UNK         0.5055 
     38 O          31.0057   28.9846    3.5455 O.2       5 UNK        -0.5220 
     39 N          28.7480   28.9145    3.3534 N.am      6 UNK        -0.4450 
     40 CA         28.4148   29.5587    4.6238 C.3       6 UNK         0.0367 
     41 CB         27.3681   28.7179    5.3729 C.3       6 UNK        -0.1929 
     42 C          27.8987   30.9865    4.3836 C.2       6 UNK         0.5070 
     43 O          28.2365   31.8808    5.1579 O.2       6 UNK        -0.5237 
     44 N          27.1049   31.1826    3.3182 N.am      7 UNK        -0.4739 
     45 CA         26.5856   32.4803    2.8735 C.3       7 UNK         0.0276 
     46 CB         25.5633   32.2660    1.7453 C.3       7 UNK        -0.1927 
     47 C          27.7066   33.4364    2.4336 C.2       7 UNK         0.5013 
     48 O          27.7697   34.5659    2.9210 O.2       7 UNK        -0.5193 
     49 N          28.6006   32.9427    1.5689 N.am      8 UNK        -0.4253 
     50 CA         29.9167   33.5168    1.3172 C.3       8 UNK         0.0242 
     51 CB         30.2154   33.4750   -0.1922 C.3       8 UNK        -0.2000 
     52 C          30.8750   32.6395    2.1254 C.2       8 UNK         0.4948 
     53 O          31.2332   31.5586    1.6584 O.2       8 UNK        -0.5275 
     54 N          31.1682   33.0711    3.3597 N.am      9 UNK        -0.4246 
     55 CA         31.7356   32.2956    4.4722 C.3       9 UNK         0.0261 
     56 CB         31.6211   33.1356    5.7585 C.3       9 UNK        -0.1959 
     57 C          33.1552   31.7180    4.2736 C.2       9 UNK         0.5033 
     58 O          34.0083   31.8663    5.1510 O.2       9 UNK        -0.5390 
     59 N          33.3737   31.0119    3.1610 N.am      10 UNK        -0.4215 
     60 CA         34.5650   30.2226    2.8447 C.3       10 UNK         0.0240 
     61 CB         34.4233   29.6535    1.4239 C.3       10 UNK        -0.1982 
     62 C          34.8242   29.0898    3.8534 C.2       10 UNK         0.4970 
     63 O          35.9864   28.7792    4.1160 O.2       10 UNK        -0.4916 
     64 N          33.7474   28.5176    4.4078 N.am      11 UNK        -0.4279 
     65 CA         33.7776   27.5406    5.5049 C.3       11 UNK         0.1003 
     66 C          33.5208   28.1754    6.9047 C.2       11 UNK         0.5709 
     67 N          33.5255   29.4960    7.0538 N.am      11 UNK        -0.7358 
     68 O          33.3309   27.4609    7.8858 O.2       11 UNK        -0.4999 
     69 C69        32.8484   26.3314    5.1935 C.3       12 UNK        -0.0954 
     70 S70        33.5848   24.7312    5.6732 S.3       12 UNK        -0.2268 
     71 C71        34.8239   24.4639    4.3608 C.3       12 UNK         0.0203 
     72 H72        26.4438   18.1940   -0.6239 H         1 UNK         0.0888 
     73 H73        28.0160   17.4174   -0.8320 H         1 UNK         0.0888 
     74 H74        27.5066   17.9643    0.7662 H         1 UNK         0.0888 
     75 H75        28.5510   19.8481    1.3770 H         1 UNK         0.3017 
     76 H76        29.9834   21.5088   -0.4377 H         1 UNK         0.0873 
     77 H77        29.2637   22.0419    2.4890 H         1 UNK         0.0745 
     78 H78        30.4601   22.9132    1.5818 H         1 UNK         0.0745 
     79 H79        33.4776   20.4481    1.3972 H         1 UNK         0.0705 
     80 H80        32.4361   21.0453    0.1314 H         1 UNK         0.0705 
     81 H81        33.8952   22.0673    3.4527 H         1 UNK         0.1334 
     82 H82        34.3246   26.1749    2.2983 H         1 UNK         0.1417 
     83 H83        32.4916   23.3785   -0.3846 H         1 UNK         0.1562 
     84 H84        33.5110   25.7073   -1.1357 H         1 UNK         0.0748 
     85 H85        33.6799   26.9131    0.1146 H         1 UNK         0.0748 
     86 H86        31.8632   27.0153    1.9704 H         1 UNK         0.0940 
     87 H87        30.3683   26.1196    1.8781 H         1 UNK         0.0940 
     88 H88        30.7763   29.0007    0.9224 H         1 UNK         0.0703 
     89 H89        28.5310   27.2227    0.5544 H         1 UNK         0.3081 
     90 H90        26.3097   29.7809   -0.5799 H         1 UNK         0.0719 
     91 H91        27.7126   27.4645   -2.0203 H         1 UNK         0.0809 
     92 H92        26.2376   28.2795   -2.5425 H         1 UNK         0.0809 
     93 H93        27.7621   29.1485   -2.5234 H         1 UNK         0.0809 
     94 H94        25.7746   27.0680   -0.4099 H         1 UNK         0.2990 
     95 H95        25.1594   26.5333    2.9650 H         1 UNK         0.0690 
     96 H96        22.7257   26.4226    2.4850 H         1 UNK         0.0788 
     97 H97        22.9385   27.4141    1.0407 H         1 UNK         0.0788 
     98 H98        23.2392   28.0941    2.6338 H         1 UNK         0.0788 
     99 H99        24.0896   25.2505    0.6481 H         1 UNK         0.2993 
    100 H100       24.9867   22.9448    0.5799 H         1 UNK         0.0949 
    101 H101       25.5869   22.9481   -1.8867 H         1 UNK         0.0767 
    102 H102       24.6751   24.3629   -1.3981 H         1 UNK         0.0767 
    103 H103       26.4056   24.4915   -1.6604 H         1 UNK         0.0767 
    104 H104       26.7763   21.7104    0.8952 H         1 UNK         0.3013 
    105 H105       27.9652   28.7070    2.7443 H         1 UNK         0.3121 
    106 H106       29.3019   29.6285    5.2570 H         1 UNK         0.0774 
    107 H107       27.1285   29.1677    6.3372 H         1 UNK         0.0815 
    108 H108       26.4356   28.6306    4.8148 H         1 UNK         0.0815 
    109 H109       27.7371   27.7109    5.5675 H         1 UNK         0.0815 
    110 H110       26.8034   30.3715    2.7840 H         1 UNK         0.2987 
    111 H111       26.0705   32.9397    3.7199 H         1 UNK         0.0949 
    112 H112       26.0142   31.7871    0.8757 H         1 UNK         0.0806 
    113 H113       24.7337   31.6409    2.0763 H         1 UNK         0.0806 
    114 H114       25.1425   33.2164    1.4143 H         1 UNK         0.0806 
    115 H115       28.4843   31.9871    1.2334 H         1 UNK         0.3010 
    116 H116       29.9797   34.5518    1.6601 H         1 UNK         0.0829 
    117 H117       29.5098   34.0909   -0.7497 H         1 UNK         0.0813 
    118 H118       31.2165   33.8540   -0.4006 H         1 UNK         0.0813 
    119 H119       30.1593   32.4617   -0.5928 H         1 UNK         0.0813 
    120 H120       30.8166   33.9819    3.6185 H         1 UNK         0.3038 
    121 H121       31.0857   31.4294    4.6051 H         1 UNK         0.0769 
    122 H122       32.2356   34.0352    5.7076 H         1 UNK         0.0811 
    123 H123       31.9442   32.5666    6.6315 H         1 UNK         0.0811 
    124 H124       30.5903   33.4391    5.9441 H         1 UNK         0.0811 
    125 H125       32.5988   30.9771    2.4944 H         1 UNK         0.3204 
    126 H126       35.4258   30.8937    2.8695 H         1 UNK         0.0748 
    127 H127       35.2874   29.0443    1.1549 H         1 UNK         0.0771 
    128 H128       33.5351   29.0273    1.3313 H         1 UNK         0.0771 
    129 H129       34.3455   30.4512    0.6849 H         1 UNK         0.0771 
    130 H130       32.8208   28.8303    4.1256 H         1 UNK         0.2980 
    131 H131       34.7979   27.1641    5.5811 H         1 UNK         0.0545 
    132 H132       33.7330   30.1152    6.2807 H         1 UNK         0.3459 
    133 H133       33.3656   29.8804    7.9710 H         1 UNK         0.3459 
    134 H134       31.8820   26.4357    5.6900 H         1 UNK         0.0616 
    135 H135       32.6079   26.2812    4.1327 H         1 UNK         0.0616 
    136 H136       35.4759   25.3349    4.2821 H         1 UNK         0.0634 
    137 H137       35.4670   23.6334    4.6553 H         1 UNK         0.0634 
@<TRIPOS>BOND
     1    1    2 1    
     2    1   72 1    
     3    1   73 1    
     4    1   74 1    
     5    2    3 2    
     6    2    4 am   BACKBONE|DICT|INTERRES
     7    4    5 1    
     8    4   75 1    
     9    5    6 1    
    10    5   35 1    
    11    5   76 1    
    12    6    7 1    
    13    6   77 1    
    14    6   78 1    
    15    7    8 1    
    16    8    9 1    
    17    8   79 1    
    18    8   80 1    
    19    9   10 ar   
    20    9   14 ar   
    21   10   11 ar   
    22   10   81 1    
    23   11   12 ar   
    24   11   71 1    
    25   12   13 ar   
    26   12   82 1    
    27   13   14 ar   
    28   13   15 1    
    29   14   83 1    
    30   15   16 1    
    31   15   84 1    
    32   15   85 1    
    33   16   17 1    
    34   17   18 1    
    35   17   86 1    
    36   17   87 1    
    37   18   19 1    
    38   18   37 1    
    39   18   88 1    
    40   19   20 am   BACKBONE|DICT|INTERRES
    41   19   89 1    
    42   20   21 2    
    43   20   22 1    
    44   22   23 1    
    45   22   24 1    
    46   22   90 1    
    47   23   91 1    
    48   23   92 1    
    49   23   93 1    
    50   24   25 am   BACKBONE|DICT|INTERRES
    51   24   94 1    
    52   25   26 2    
    53   25   27 1    
    54   27   28 1    
    55   27   29 1    
    56   27   95 1    
    57   28   96 1    
    58   28   97 1    
    59   28   98 1    
    60   29   30 am   BACKBONE|DICT|INTERRES
    61   29   99 1    
    62   30   31 2    
    63   30   32 1    
    64   32   33 1    
    65   32   34 1    
    66   32  100 1    
    67   33  101 1    
    68   33  102 1    
    69   33  103 1    
    70   34   35 am   BACKBONE|DICT|INTERRES
    71   34  104 1    
    72   35   36 2    
    73   37   38 2    
    74   37   39 am   BACKBONE|DICT|INTERRES
    75   39   40 1    
    76   39  105 1    
    77   40   41 1    
    78   40   42 1    
    79   40  106 1    
    80   41  107 1    
    81   41  108 1    
    82   41  109 1    
    83   42   43 2    
    84   42   44 am   BACKBONE|DICT|INTERRES
    85   44   45 1    
    86   44  110 1    
    87   45   46 1    
    88   45   47 1    
    89   45  111 1    
    90   46  112 1    
    91   46  113 1    
    92   46  114 1    
    93   47   48 2    
    94   47   49 am   BACKBONE|DICT|INTERRES
    95   49   50 1    
    96   49  115 1    
    97   50   51 1    
    98   50   52 1    
    99   50  116 1    
   100   51  117 1    
   101   51  118 1    
   102   51  119 1    
   103   52   53 2    
   104   52   54 am   BACKBONE|DICT|INTERRES
   105   54   55 1    
   106   54  120 1    
   107   55   56 1    
   108   55   57 1    
   109   55  121 1    
   110   56  122 1    
   111   56  123 1    
   112   56  124 1    
   113   57   58 2    
   114   57   59 am   BACKBONE|DICT|INTERRES
   115   59   60 1    
   116   59  125 1    
   117   60   61 1    
   118   60   62 1    
   119   60  126 1    
   120   61  127 1    
   121   61  128 1    
   122   61  129 1    
   123   62   63 2    
   124   62   64 am   BACKBONE|DICT|INTERRES
   125   64   65 1    
   126   64  130 1    
   127   65   66 1    
   128   65   69 1    
   129   65  131 1    
   130   66   67 am   BACKBONE|DICT|INTERRES
   131   66   68 2    
   132   67  132 1    
   133   67  133 1    
   134   69   70 1    
   135   69  134 1    
   136   69  135 1    
   137   70   71 1    
   138   71  136 1    
   139   71  137 1    
@<TRIPOS>SUBSTRUCTURE
     1 UNK         1 GROUP             0       ****    0 ROOT    
