@<TRIPOS>MOLECULE
3R136
137   139    1
SMALL
USER_CHARGES


@<TRIPOS>ATOM
      1 CA         29.9001   17.3425   -0.6259 C.3       0 UNK        -0.1979 
      2 C          30.0987   18.8235   -0.3381 C.2       0 UNK         0.4864 
      3 O          31.2068   19.2364    0.0070 O.2       0 UNK        -0.5359 
      4 N          29.0367   19.6228   -0.4787 N.am      1 UNK        -0.4318 
      5 CA         29.0262   21.0698   -0.2804 C.3       1 UNK         0.0824 
      6 C6         28.9092   21.4452    1.2199 C.3       12 UNK        -0.0944 
      7 S7         29.3111   23.1918    1.5449 S.3       12 UNK        -0.2672 
      8 C8         29.4219   23.1678    3.3562 C.3       12 UNK         0.0333 
      9 C9         29.5493   24.5818    3.8935 C.ar      12 UNK        -0.0807 
     10 C10        30.8034   25.1950    3.9678 C.ar      12 UNK        -0.0894 
     11 C11        30.9250   26.5096    4.4276 C.ar      12 UNK        -0.0804 
     12 C12        29.7778   27.2010    4.8265 C.ar      12 UNK        -0.0824 
     13 C13        28.5178   26.5992    4.7554 C.ar      12 UNK        -0.0762 
     14 C14        28.4096   25.2854    4.2932 C.ar      12 UNK        -0.0782 
     15 C15        27.2742   27.3832    5.1562 C.3       12 UNK         0.0230 
     16 S16        26.1895   27.7658    3.7377 S.3       12 UNK        -0.2608 
     17 C17        27.3559   28.4432    2.5076 C.3       12 UNK        -0.0989 
     18 CA         27.4537   27.5171    1.2635 C.3       5 UNK         0.0716 
     19 N          26.2751   27.5237    0.3866 N.am      5 UNK        -0.4135 
     20 C          25.6347   28.5736   -0.1567 C.2       4 UNK         0.5031 
     21 O          25.8981   29.7514    0.0890 O.2       4 UNK        -0.5229 
     22 CA         24.5042   28.2867   -1.1691 C.3       4 UNK         0.0329 
     23 CB         24.8384   28.8987   -2.5412 C.3       4 UNK        -0.2001 
     24 N          24.2212   26.8633   -1.3560 N.am      4 UNK        -0.4303 
     25 C          23.4980   26.0959   -0.5294 C.2       3 UNK         0.5044 
     26 O          22.9046   26.5230    0.4607 O.2       3 UNK        -0.5152 
     27 CA         23.4576   24.5879   -0.8482 C.3       3 UNK         0.0319 
     28 CB         22.1593   24.2298   -1.5892 C.3       3 UNK        -0.2001 
     29 N          24.6086   24.1124   -1.6301 N.am      3 UNK        -0.4354 
     30 C          25.8808   24.1416   -1.2091 C.2       2 UNK         0.4964 
     31 O          26.2297   24.5940   -0.1166 O.2       2 UNK        -0.5047 
     32 CA         26.9496   23.6699   -2.2048 C.3       2 UNK         0.0288 
     33 CB         27.5897   24.8814   -2.9046 C.3       2 UNK        -0.2113 
     34 N          27.9920   22.9156   -1.5126 N.am      2 UNK        -0.4145 
     35 C          27.8704   21.6420   -1.1202 C.2       1 UNK         0.5006 
     36 O          26.8985   20.9283   -1.3908 O.2       1 UNK        -0.5103 
     37 C          28.7442   27.7654    0.4612 C.2       5 UNK         0.5055 
     38 O          28.8134   28.6885   -0.3537 O.2       5 UNK        -0.5220 
     39 N          29.7694   26.9450    0.7260 N.am      6 UNK        -0.4450 
     40 CA         31.0836   27.0040    0.0811 C.3       6 UNK         0.0367 
     41 CB         31.7396   25.6128    0.1539 C.3       6 UNK        -0.1929 
     42 C          31.9684   28.1112    0.6868 C.2       6 UNK         0.5070 
     43 O          33.0142   27.8123    1.2632 O.2       6 UNK        -0.5237 
     44 N          31.5189   29.3658    0.5384 N.am      7 UNK        -0.4739 
     45 CA         32.1261   30.6089    1.0295 C.3       7 UNK         0.0276 
     46 CB         33.5166   30.8439    0.4005 C.3       7 UNK        -0.1927 
     47 C          32.1526   30.6702    2.5665 C.2       7 UNK         0.5013 
     48 O          33.2198   30.5887    3.1788 O.2       7 UNK        -0.5193 
     49 N          30.9677   30.8415    3.1717 N.am      8 UNK        -0.4253 
     50 CA         30.7759   30.9690    4.6244 C.3       8 UNK         0.0242 
     51 CB         29.2796   31.1330    4.9369 C.3       8 UNK        -0.2000 
     52 C          31.5842   32.1064    5.2731 C.2       8 UNK         0.4948 
     53 O          32.0391   31.9554    6.4066 O.2       8 UNK        -0.5275 
     54 N          31.7954   33.1978    4.5245 N.am      9 UNK        -0.4246 
     55 CA         32.6564   34.3183    4.9074 C.3       9 UNK         0.0261 
     56 CB         32.4519   35.4723    3.9121 C.3       9 UNK        -0.1959 
     57 C          34.1504   33.9505    5.0039 C.2       9 UNK         0.5033 
     58 O          34.8834   34.6431    5.7117 O.2       9 UNK        -0.5390 
     59 N          34.5791   32.8907    4.3019 N.am      10 UNK        -0.4215 
     60 CA         35.9425   32.3696    4.3514 C.3       10 UNK         0.0240 
     61 CB         36.3496   31.8121    2.9762 C.3       10 UNK        -0.1982 
     62 C          36.0829   31.3027    5.4451 C.2       10 UNK         0.4970 
     63 O          37.0283   31.3879    6.2306 O.2       10 UNK        -0.4916 
     64 N          35.1676   30.3196    5.4802 N.am      11 UNK        -0.4279 
     65 CA         35.2222   29.2176    6.4580 C.3       11 UNK         0.1003 
     66 C          34.7999   29.5949    7.9080 C.2       11 UNK         0.5709 
     67 N          34.0181   30.6458    8.1239 N.am      11 UNK        -0.7358 
     68 O          35.2117   28.9318    8.8574 O.2       11 UNK        -0.4999 
     69 C69        34.5755   27.9044    5.9348 C.3       12 UNK        -0.0954 
     70 S70        32.7617   27.7584    6.1104 S.3       12 UNK        -0.2268 
     71 C71        32.2882   27.1892    4.4493 C.3       12 UNK         0.0203 
     72 H72        28.8739   17.1179   -0.9164 H         1 UNK         0.0888 
     73 H73        30.1382   16.7531    0.2591 H         1 UNK         0.0888 
     74 H74        30.5585   17.0256   -1.4344 H         1 UNK         0.0888 
     75 H75        28.1502   19.2563   -0.8059 H         1 UNK         0.3017 
     76 H76        29.9602   21.4702   -0.6818 H         1 UNK         0.0873 
     77 H77        29.6006   20.8386    1.8072 H         1 UNK         0.0745 
     78 H78        27.9115   21.2252    1.6051 H         1 UNK         0.0745 
     79 H79        28.5365   22.6834    3.7711 H         1 UNK         0.0705 
     80 H80        30.2798   22.5672    3.6628 H         1 UNK         0.0705 
     81 H81        31.6820   24.6516    3.6476 H         1 UNK         0.1334 
     82 H82        29.8653   28.2143    5.1861 H         1 UNK         0.1417 
     83 H83        27.4350   24.8209    4.2243 H         1 UNK         0.1562 
     84 H84        27.5481   28.3165    5.6503 H         1 UNK         0.0748 
     85 H85        26.7070   26.8080    5.8893 H         1 UNK         0.0748 
     86 H86        28.3346   28.5701    2.9679 H         1 UNK         0.0940 
     87 H87        27.0469   29.4545    2.2471 H         1 UNK         0.0940 
     88 H88        27.5159   26.4886    1.6249 H         1 UNK         0.0703 
     89 H89        25.9788   26.5951    0.1070 H         1 UNK         0.3081 
     90 H90        23.6028   28.7733   -0.7902 H         1 UNK         0.0719 
     91 H91        24.9976   29.9751   -2.4626 H         1 UNK         0.0809 
     92 H92        25.7458   28.4666   -2.9653 H         1 UNK         0.0809 
     93 H93        24.0270   28.7467   -3.2533 H         1 UNK         0.0809 
     94 H94        24.6561   26.4184   -2.1508 H         1 UNK         0.2990 
     95 H95        23.4647   24.0565    0.1059 H         1 UNK         0.0690 
     96 H96        22.0719   23.1537   -1.7410 H         1 UNK         0.0788 
     97 H97        22.1037   24.7137   -2.5652 H         1 UNK         0.0788 
     98 H98        21.2844   24.5458   -1.0189 H         1 UNK         0.0788 
     99 H99        24.4058   23.7388   -2.5469 H         1 UNK         0.2993 
    100 H100       26.4875   23.0286   -2.9590 H         1 UNK         0.0949 
    101 H101       28.0582   25.5617   -2.1912 H         1 UNK         0.0767 
    102 H102       28.3523   24.5687   -3.6183 H         1 UNK         0.0767 
    103 H103       26.8448   25.4531   -3.4597 H         1 UNK         0.0767 
    104 H104       28.7837   23.4462   -1.1790 H         1 UNK         0.3013 
    105 H105       29.6570   26.2356    1.4382 H         1 UNK         0.3121 
    106 H106       30.9478   27.2439   -0.9759 H         1 UNK         0.0774 
    107 H107       31.8889   25.2884    1.1840 H         1 UNK         0.0815 
    108 H108       31.1330   24.8612   -0.3509 H         1 UNK         0.0815 
    109 H109       32.7165   25.6155   -0.3314 H         1 UNK         0.0815 
    110 H110       30.6199   29.4644    0.0740 H         1 UNK         0.2987 
    111 H111       31.4818   31.4227    0.6925 H         1 UNK         0.0949 
    112 H112       33.4651   30.8417   -0.6881 H         1 UNK         0.0806 
    113 H113       33.9215   31.8100    0.7044 H         1 UNK         0.0806 
    114 H114       34.2388   30.0849    0.7028 H         1 UNK         0.0806 
    115 H115       30.1385   30.9006    2.5985 H         1 UNK         0.3010 
    116 H116       31.1300   30.0444    5.0795 H         1 UNK         0.0829 
    117 H117       29.1108   31.1852    6.0136 H         1 UNK         0.0813 
    118 H118       28.6938   30.2957    4.5619 H         1 UNK         0.0813 
    119 H119       28.8734   32.0461    4.5000 H         1 UNK         0.0813 
    120 H120       31.3720   33.2400    3.6091 H         1 UNK         0.3038 
    121 H121       32.3413   34.6584    5.8963 H         1 UNK         0.0769 
    122 H122       31.4128   35.8014    3.8923 H         1 UNK         0.0811 
    123 H123       32.7354   35.1872    2.8981 H         1 UNK         0.0811 
    124 H124       33.0575   36.3369    4.1881 H         1 UNK         0.0811 
    125 H125       33.9067   32.3239    3.7952 H         1 UNK         0.3204 
    126 H126       36.6322   33.1833    4.5871 H         1 UNK         0.0748 
    127 H127       37.3912   31.4885    2.9840 H         1 UNK         0.0771 
    128 H128       35.7482   30.9514    2.6838 H         1 UNK         0.0771 
    129 H129       36.2518   32.5684    2.1974 H         1 UNK         0.0771 
    130 H130       34.4164   30.3014    4.7982 H         1 UNK         0.2980 
    131 H131       36.2818   28.9691    6.5506 H         1 UNK         0.0545 
    132 H132       33.5847   31.1464    7.3555 H         1 UNK         0.3459 
    133 H133       33.7657   30.8787    9.0704 H         1 UNK         0.3459 
    134 H134       35.0060   27.0578    6.4722 H         1 UNK         0.0616 
    135 H135       34.8582   27.7541    4.8918 H         1 UNK         0.0616 
    136 H136       32.2712   28.0469    3.7803 H         1 UNK         0.0634 
    137 H137       33.0522   26.5112    4.0660 H         1 UNK         0.0634 
@<TRIPOS>BOND
     1    1    2 1    
     2    1   72 1    
     3    1   73 1    
     4    1   74 1    
     5    2    3 2    
     6    2    4 am   BACKBONE|DICT|INTERRES
     7    4    5 1    
     8    4   75 1    
     9    5    6 1    
    10    5   35 1    
    11    5   76 1    
    12    6    7 1    
    13    6   77 1    
    14    6   78 1    
    15    7    8 1    
    16    8    9 1    
    17    8   79 1    
    18    8   80 1    
    19    9   10 ar   
    20    9   14 ar   
    21   10   11 ar   
    22   10   81 1    
    23   11   12 ar   
    24   11   71 1    
    25   12   13 ar   
    26   12   82 1    
    27   13   14 ar   
    28   13   15 1    
    29   14   83 1    
    30   15   16 1    
    31   15   84 1    
    32   15   85 1    
    33   16   17 1    
    34   17   18 1    
    35   17   86 1    
    36   17   87 1    
    37   18   19 1    
    38   18   37 1    
    39   18   88 1    
    40   19   20 am   BACKBONE|DICT|INTERRES
    41   19   89 1    
    42   20   21 2    
    43   20   22 1    
    44   22   23 1    
    45   22   24 1    
    46   22   90 1    
    47   23   91 1    
    48   23   92 1    
    49   23   93 1    
    50   24   25 am   BACKBONE|DICT|INTERRES
    51   24   94 1    
    52   25   26 2    
    53   25   27 1    
    54   27   28 1    
    55   27   29 1    
    56   27   95 1    
    57   28   96 1    
    58   28   97 1    
    59   28   98 1    
    60   29   30 am   BACKBONE|DICT|INTERRES
    61   29   99 1    
    62   30   31 2    
    63   30   32 1    
    64   32   33 1    
    65   32   34 1    
    66   32  100 1    
    67   33  101 1    
    68   33  102 1    
    69   33  103 1    
    70   34   35 am   BACKBONE|DICT|INTERRES
    71   34  104 1    
    72   35   36 2    
    73   37   38 2    
    74   37   39 am   BACKBONE|DICT|INTERRES
    75   39   40 1    
    76   39  105 1    
    77   40   41 1    
    78   40   42 1    
    79   40  106 1    
    80   41  107 1    
    81   41  108 1    
    82   41  109 1    
    83   42   43 2    
    84   42   44 am   BACKBONE|DICT|INTERRES
    85   44   45 1    
    86   44  110 1    
    87   45   46 1    
    88   45   47 1    
    89   45  111 1    
    90   46  112 1    
    91   46  113 1    
    92   46  114 1    
    93   47   48 2    
    94   47   49 am   BACKBONE|DICT|INTERRES
    95   49   50 1    
    96   49  115 1    
    97   50   51 1    
    98   50   52 1    
    99   50  116 1    
   100   51  117 1    
   101   51  118 1    
   102   51  119 1    
   103   52   53 2    
   104   52   54 am   BACKBONE|DICT|INTERRES
   105   54   55 1    
   106   54  120 1    
   107   55   56 1    
   108   55   57 1    
   109   55  121 1    
   110   56  122 1    
   111   56  123 1    
   112   56  124 1    
   113   57   58 2    
   114   57   59 am   BACKBONE|DICT|INTERRES
   115   59   60 1    
   116   59  125 1    
   117   60   61 1    
   118   60   62 1    
   119   60  126 1    
   120   61  127 1    
   121   61  128 1    
   122   61  129 1    
   123   62   63 2    
   124   62   64 am   BACKBONE|DICT|INTERRES
   125   64   65 1    
   126   64  130 1    
   127   65   66 1    
   128   65   69 1    
   129   65  131 1    
   130   66   67 am   BACKBONE|DICT|INTERRES
   131   66   68 2    
   132   67  132 1    
   133   67  133 1    
   134   69   70 1    
   135   69  134 1    
   136   69  135 1    
   137   70   71 1    
   138   71  136 1    
   139   71  137 1    
@<TRIPOS>SUBSTRUCTURE
     1 UNK         1 GROUP             0       ****    0 ROOT    
