@<TRIPOS>MOLECULE
3R136
137   139    1
SMALL
USER_CHARGES


@<TRIPOS>ATOM
      1 CA         30.3129   26.4064   -5.0944 C.3       0 UNK        -0.1979 
      2 C          29.8611   26.8288   -3.7043 C.2       0 UNK         0.4864 
      3 O          29.2424   27.8830   -3.5575 O.2       0 UNK        -0.5359 
      4 N          30.1652   26.0128   -2.6860 N.am      1 UNK        -0.4318 
      5 CA         29.8042   26.2435   -1.2807 C.3       1 UNK         0.0824 
      6 C6         30.6565   25.3689   -0.3307 C.3       12 UNK        -0.0944 
      7 S7         30.4738   23.5719   -0.6072 S.3       12 UNK        -0.2672 
      8 C8         31.8131   22.9174    0.4357 C.3       12 UNK         0.0333 
      9 C9         31.5968   23.2419    1.9065 C.ar      12 UNK        -0.0807 
     10 C10        32.4154   24.1740    2.5512 C.ar      12 UNK        -0.0894 
     11 C11        32.2230   24.4740    3.9027 C.ar      12 UNK        -0.0804 
     12 C12        31.2026   23.8321    4.6103 C.ar      12 UNK        -0.0824 
     13 C13        30.3743   22.8993    3.9747 C.ar      12 UNK        -0.0762 
     14 C14        30.5803   22.6051    2.6241 C.ar      12 UNK        -0.0782 
     15 C15        29.2597   22.2029    4.7460 C.3       12 UNK         0.0230 
     16 S16        27.6067   22.8317    4.2988 S.3       12 UNK        -0.2608 
     17 C17        27.7703   24.5978    4.7180 C.3       12 UNK        -0.0989 
     18 CA         27.7562   25.4859    3.4401 C.3       5 UNK         0.0716 
     19 N          26.4091   25.6428    2.8737 N.am      5 UNK        -0.4135 
     20 C          25.3765   26.2926    3.4420 C.2       4 UNK         0.5031 
     21 O          25.4242   26.8279    4.5502 O.2       4 UNK        -0.5229 
     22 CA         24.0542   26.3853    2.6564 C.3       4 UNK         0.0329 
     23 CB         23.9319   27.7672    1.9923 C.3       4 UNK        -0.2001 
     24 N          23.9033   25.3556    1.6316 N.am      4 UNK        -0.4303 
     25 C          23.7466   24.0428    1.8546 C.2       3 UNK         0.5044 
     26 O          23.5741   23.5512    2.9699 O.2       3 UNK        -0.5152 
     27 CA         23.8202   23.1208    0.6195 C.3       3 UNK         0.0319 
     28 CB         22.4142   22.6534    0.2100 C.3       3 UNK        -0.2001 
     29 N          24.4780   23.7443   -0.5380 N.am      3 UNK        -0.4354 
     30 C          25.7590   24.1411   -0.5669 C.2       2 UNK         0.4964 
     31 O          26.5465   23.9352    0.3586 O.2       2 UNK        -0.5047 
     32 CA         26.1868   24.9345   -1.8172 C.3       2 UNK         0.0288 
     33 CB         25.3228   26.2012   -2.0109 C.3       2 UNK        -0.2113 
     34 N          27.6113   25.2872   -1.8372 N.am      2 UNK        -0.4145 
     35 C          28.2940   26.0825   -0.9950 C.2       1 UNK         0.5006 
     36 O          27.8000   26.6716   -0.0293 O.2       1 UNK        -0.5103 
     37 C          28.4243   26.8613    3.6513 C.2       5 UNK         0.5055 
     38 O          28.7780   27.2105    4.7789 O.2       5 UNK        -0.5220 
     39 N          28.5431   27.6335    2.5640 N.am      6 UNK        -0.4450 
     40 CA         29.0829   28.9881    2.5693 C.3       6 UNK         0.0367 
     41 CB         27.9211   29.9957    2.4866 C.3       6 UNK        -0.1929 
     42 C          30.0779   29.1375    1.4138 C.2       6 UNK         0.5070 
     43 O          29.6989   29.5880    0.3320 O.2       6 UNK        -0.5237 
     44 N          31.3313   28.7356    1.6592 N.am      7 UNK        -0.4739 
     45 CA         32.4621   28.9183    0.7439 C.3       7 UNK         0.0276 
     46 CB         33.4546   27.7523    0.9316 C.3       7 UNK        -0.1927 
     47 C          33.1068   30.3090    0.9388 C.2       7 UNK         0.5013 
     48 O          32.3975   31.2849    1.1983 O.2       7 UNK        -0.5193 
     49 N          34.4403   30.3896    0.8098 N.am      8 UNK        -0.4253 
     50 CA         35.2463   31.5997    1.0068 C.3       8 UNK         0.0242 
     51 CB         36.7292   31.2683    0.7739 C.3       8 UNK        -0.2000 
     52 C          35.0370   32.2008    2.4069 C.2       8 UNK         0.4948 
     53 O          35.2260   31.4968    3.4015 O.2       8 UNK        -0.5275 
     54 N          34.5861   33.4638    2.4497 N.am      9 UNK        -0.4246 
     55 CA         34.1747   34.2138    3.6477 C.3       9 UNK         0.0261 
     56 CB         35.4029   34.5524    4.5197 C.3       9 UNK        -0.1959 
     57 C          33.0503   33.5237    4.4540 C.2       9 UNK         0.5033 
     58 O          32.9775   33.6978    5.6716 O.2       9 UNK        -0.5390 
     59 N          32.2225   32.7211    3.7650 N.am      10 UNK        -0.4215 
     60 CA         31.1858   31.8257    4.2914 C.3       10 UNK         0.0240 
     61 CB         30.0733   32.6120    5.0169 C.3       10 UNK        -0.1982 
     62 C          31.7276   30.6492    5.1332 C.2       10 UNK         0.4970 
     63 O          30.9247   29.9682    5.7689 O.2       10 UNK        -0.4916 
     64 N          33.0512   30.4225    5.1077 N.am      11 UNK        -0.4279 
     65 CA         33.8178   29.3667    5.7939 C.3       11 UNK         0.1003 
     66 C          33.4977   29.0969    7.2967 C.2       11 UNK         0.5709 
     67 N          33.0323   30.0878    8.0479 N.am      11 UNK        -0.7358 
     68 O          33.7169   27.9998    7.8056 O.2       11 UNK        -0.4999 
     69 C69        34.0278   28.1006    4.9166 C.3       12 UNK        -0.0954 
     70 S70        32.5217   27.1736    4.4597 S.3       12 UNK        -0.2268 
     71 C71        33.1398   25.4687    4.5990 C.3       12 UNK         0.0203 
     72 H72        30.9757   27.1602   -5.5183 H         1 UNK         0.0888 
     73 H73        30.8466   25.4562   -5.0794 H         1 UNK         0.0888 
     74 H74        29.4513   26.3008   -5.7530 H         1 UNK         0.0888 
     75 H75        30.6777   25.1600   -2.8643 H         1 UNK         0.3017 
     76 H76        30.0424   27.2858   -1.0608 H         1 UNK         0.0873 
     77 H77        30.4257   25.5981    0.7118 H         1 UNK         0.0745 
     78 H78        31.7080   25.6178   -0.4705 H         1 UNK         0.0745 
     79 H79        32.7681   23.3112    0.0841 H         1 UNK         0.0705 
     80 H80        31.8630   21.8350    0.3091 H         1 UNK         0.0705 
     81 H81        33.2086   24.6634    2.0034 H         1 UNK         0.1334 
     82 H82        31.0543   24.0621    5.6567 H         1 UNK         0.1417 
     83 H83        29.9398   21.8891    2.1266 H         1 UNK         0.1562 
     84 H84        29.4057   22.3149    5.8216 H         1 UNK         0.0748 
     85 H85        29.2957   21.1312    4.5452 H         1 UNK         0.0748 
     86 H86        28.6876   24.7345    5.2904 H         1 UNK         0.0940 
     87 H87        26.9688   24.8739    5.4039 H         1 UNK         0.0940 
     88 H88        28.3566   24.9893    2.6749 H         1 UNK         0.0703 
     89 H89        26.2836   25.2219    1.9591 H         1 UNK         0.3081 
     90 H90        23.2369   26.2709    3.3716 H         1 UNK         0.0719 
     91 H91        24.7253   27.9362    1.2625 H         1 UNK         0.0809 
     92 H92        22.9745   27.8823    1.4838 H         1 UNK         0.0809 
     93 H93        23.9998   28.5637    2.7348 H         1 UNK         0.0809 
     94 H94        24.0126   25.6558    0.6748 H         1 UNK         0.2990 
     95 H95        24.4056   22.2441    0.9048 H         1 UNK         0.0690 
     96 H96        22.4566   21.9381   -0.6116 H         1 UNK         0.0788 
     97 H97        21.7851   23.4883   -0.1013 H         1 UNK         0.0788 
     98 H98        21.9101   22.1584    1.0414 H         1 UNK         0.0788 
     99 H99        23.8923   23.9310   -1.3397 H         1 UNK         0.2993 
    100 H100       26.0278   24.2777   -2.6739 H         1 UNK         0.0949 
    101 H101       25.6562   26.7748   -2.8760 H         1 UNK         0.0767 
    102 H102       24.2749   25.9532   -2.1815 H         1 UNK         0.0767 
    103 H103       25.3652   26.8602   -1.1429 H         1 UNK         0.0767 
    104 H104       28.1540   24.8296   -2.5552 H         1 UNK         0.3013 
    105 H105       28.2388   27.2787    1.6566 H         1 UNK         0.3121 
    106 H106       29.6272   29.1781    3.4956 H         1 UNK         0.0774 
    107 H107       28.2942   31.0197    2.4453 H         1 UNK         0.0815 
    108 H108       27.3076   29.8330    1.5994 H         1 UNK         0.0815 
    109 H109       27.2724   29.9200    3.3594 H         1 UNK         0.0815 
    110 H110       31.5533   28.3648    2.5747 H         1 UNK         0.2987 
    111 H111       32.0947   28.8796   -0.2839 H         1 UNK         0.0949 
    112 H112       34.0331   27.8461    1.8491 H         1 UNK         0.0806 
    113 H113       32.9389   26.7964    0.9804 H         1 UNK         0.0806 
    114 H114       34.1578   27.6921    0.1002 H         1 UNK         0.0806 
    115 H115       34.9511   29.5408    0.6175 H         1 UNK         0.3010 
    116 H116       34.9350   32.3273    0.2545 H         1 UNK         0.0829 
    117 H117       36.9004   30.8935   -0.2354 H         1 UNK         0.0813 
    118 H118       37.3512   32.1559    0.8984 H         1 UNK         0.0813 
    119 H119       37.0902   30.5174    1.4781 H         1 UNK         0.0813 
    120 H120       34.4442   33.9454    1.5716 H         1 UNK         0.3038 
    121 H121       33.7528   35.1546    3.2913 H         1 UNK         0.0769 
    122 H122       35.1324   35.2235    5.3359 H         1 UNK         0.0811 
    123 H123       36.1781   35.0506    3.9378 H         1 UNK         0.0811 
    124 H124       35.8405   33.6588    4.9659 H         1 UNK         0.0811 
    125 H125       32.3964   32.6043    2.7703 H         1 UNK         0.3204 
    126 H126       30.7329   31.3714    3.4109 H         1 UNK         0.0748 
    127 H127       29.2251   31.9661    5.2473 H         1 UNK         0.0771 
    128 H128       30.4222   33.0350    5.9592 H         1 UNK         0.0771 
    129 H129       29.6972   33.4281    4.4001 H         1 UNK         0.0771 
    130 H130       33.6276   31.0360    4.5416 H         1 UNK         0.2980 
    131 H131       34.8120   29.8097    5.8623 H         1 UNK         0.0545 
    132 H132       32.8372   29.9197    9.0219 H         1 UNK         0.3459 
    133 H133       32.8471   30.9912    7.6415 H         1 UNK         0.3459 
    134 H134       34.5242   28.3969    3.9929 H         1 UNK         0.0616 
    135 H135       34.7308   27.4268    5.4090 H         1 UNK         0.0616 
    136 H136       34.1375   25.4086    4.1612 H         1 UNK         0.0634 
    137 H137       33.2500   25.2134    5.6540 H         1 UNK         0.0634 
@<TRIPOS>BOND
     1    1    2 1    
     2    1   72 1    
     3    1   73 1    
     4    1   74 1    
     5    2    3 2    
     6    2    4 am   BACKBONE|DICT|INTERRES
     7    4    5 1    
     8    4   75 1    
     9    5    6 1    
    10    5   35 1    
    11    5   76 1    
    12    6    7 1    
    13    6   77 1    
    14    6   78 1    
    15    7    8 1    
    16    8    9 1    
    17    8   79 1    
    18    8   80 1    
    19    9   10 ar   
    20    9   14 ar   
    21   10   11 ar   
    22   10   81 1    
    23   11   12 ar   
    24   11   71 1    
    25   12   13 ar   
    26   12   82 1    
    27   13   14 ar   
    28   13   15 1    
    29   14   83 1    
    30   15   16 1    
    31   15   84 1    
    32   15   85 1    
    33   16   17 1    
    34   17   18 1    
    35   17   86 1    
    36   17   87 1    
    37   18   19 1    
    38   18   37 1    
    39   18   88 1    
    40   19   20 am   BACKBONE|DICT|INTERRES
    41   19   89 1    
    42   20   21 2    
    43   20   22 1    
    44   22   23 1    
    45   22   24 1    
    46   22   90 1    
    47   23   91 1    
    48   23   92 1    
    49   23   93 1    
    50   24   25 am   BACKBONE|DICT|INTERRES
    51   24   94 1    
    52   25   26 2    
    53   25   27 1    
    54   27   28 1    
    55   27   29 1    
    56   27   95 1    
    57   28   96 1    
    58   28   97 1    
    59   28   98 1    
    60   29   30 am   BACKBONE|DICT|INTERRES
    61   29   99 1    
    62   30   31 2    
    63   30   32 1    
    64   32   33 1    
    65   32   34 1    
    66   32  100 1    
    67   33  101 1    
    68   33  102 1    
    69   33  103 1    
    70   34   35 am   BACKBONE|DICT|INTERRES
    71   34  104 1    
    72   35   36 2    
    73   37   38 2    
    74   37   39 am   BACKBONE|DICT|INTERRES
    75   39   40 1    
    76   39  105 1    
    77   40   41 1    
    78   40   42 1    
    79   40  106 1    
    80   41  107 1    
    81   41  108 1    
    82   41  109 1    
    83   42   43 2    
    84   42   44 am   BACKBONE|DICT|INTERRES
    85   44   45 1    
    86   44  110 1    
    87   45   46 1    
    88   45   47 1    
    89   45  111 1    
    90   46  112 1    
    91   46  113 1    
    92   46  114 1    
    93   47   48 2    
    94   47   49 am   BACKBONE|DICT|INTERRES
    95   49   50 1    
    96   49  115 1    
    97   50   51 1    
    98   50   52 1    
    99   50  116 1    
   100   51  117 1    
   101   51  118 1    
   102   51  119 1    
   103   52   53 2    
   104   52   54 am   BACKBONE|DICT|INTERRES
   105   54   55 1    
   106   54  120 1    
   107   55   56 1    
   108   55   57 1    
   109   55  121 1    
   110   56  122 1    
   111   56  123 1    
   112   56  124 1    
   113   57   58 2    
   114   57   59 am   BACKBONE|DICT|INTERRES
   115   59   60 1    
   116   59  125 1    
   117   60   61 1    
   118   60   62 1    
   119   60  126 1    
   120   61  127 1    
   121   61  128 1    
   122   61  129 1    
   123   62   63 2    
   124   62   64 am   BACKBONE|DICT|INTERRES
   125   64   65 1    
   126   64  130 1    
   127   65   66 1    
   128   65   69 1    
   129   65  131 1    
   130   66   67 am   BACKBONE|DICT|INTERRES
   131   66   68 2    
   132   67  132 1    
   133   67  133 1    
   134   69   70 1    
   135   69  134 1    
   136   69  135 1    
   137   70   71 1    
   138   71  136 1    
   139   71  137 1    
@<TRIPOS>SUBSTRUCTURE
     1 UNK         1 GROUP             0       ****    0 ROOT    
