@<TRIPOS>MOLECULE
3R136
137   139    1
SMALL
USER_CHARGES


@<TRIPOS>ATOM
      1 CA         26.2072   20.2339    1.9527 C.3       0 UNK        -0.1979 
      2 C          26.7428   21.3769    1.1049 C.2       0 UNK         0.4864 
      3 O          26.0398   22.3665    0.8977 O.2       0 UNK        -0.5359 
      4 N          27.9881   21.2612    0.6229 N.am      1 UNK        -0.4318 
      5 CA         28.6605   22.2648   -0.2128 C.3       1 UNK         0.0824 
      6 C6         29.9887   21.7414   -0.8106 C.3       12 UNK        -0.0944 
      7 S7         31.1885   21.1526    0.4358 S.3       12 UNK        -0.2672 
      8 C8         32.6828   22.0890   -0.0144 C.3       12 UNK         0.0333 
      9 C9         32.6059   23.5483    0.4125 C.ar      12 UNK        -0.0807 
     10 C10        32.8398   23.8981    1.7450 C.ar      12 UNK        -0.0894 
     11 C11        32.8352   25.2381    2.1456 C.ar      12 UNK        -0.0804 
     12 C12        32.5874   26.2330    1.1914 C.ar      12 UNK        -0.0824 
     13 C13        32.3398   25.8973   -0.1435 C.ar      12 UNK        -0.0762 
     14 C14        32.3523   24.5524   -0.5264 C.ar      12 UNK        -0.0782 
     15 C15        32.1213   26.9832   -1.1894 C.3       12 UNK         0.0230 
     16 S16        30.4226   26.9876   -1.8456 S.3       12 UNK        -0.2608 
     17 C17        29.5463   27.9887   -0.6006 C.3       12 UNK        -0.0989 
     18 CA         28.0722   28.2338   -1.0101 C.3       5 UNK         0.0716 
     19 N          27.2550   27.0183   -0.9316 N.am      5 UNK        -0.4135 
     20 C          26.0169   26.8933   -1.4338 C.2       4 UNK         0.5031 
     21 O          25.4596   27.7564   -2.1135 O.2       4 UNK        -0.5229 
     22 CA         25.2544   25.5975   -1.1033 C.3       4 UNK         0.0329 
     23 CB         25.6794   24.4523   -2.0360 C.3       4 UNK        -0.2001 
     24 N          25.4162   25.1959    0.2966 N.am      4 UNK        -0.4303 
     25 C          24.9346   25.8863    1.3416 C.2       3 UNK         0.5044 
     26 O          24.2197   26.8821    1.2347 O.2       3 UNK        -0.5152 
     27 CA         25.3302   25.4030    2.7466 C.3       3 UNK         0.0319 
     28 CB         24.3297   24.3600    3.2699 C.3       3 UNK        -0.2001 
     29 N          26.6860   24.8529    2.7921 N.am      3 UNK        -0.4354 
     30 C          27.8061   25.5818    2.6788 C.2       2 UNK         0.4964 
     31 O          27.8194   26.8059    2.5490 O.2       2 UNK        -0.5047 
     32 CA         29.1315   24.8020    2.6596 C.3       2 UNK         0.0288 
     33 CB         29.5360   24.3855    4.0830 C.3       2 UNK        -0.2113 
     34 N          29.0775   23.6139    1.8051 N.am      2 UNK        -0.4145 
     35 C          28.8235   23.6300    0.4881 C.2       1 UNK         0.5006 
     36 O          28.6440   24.6611   -0.1579 O.2       1 UNK        -0.5103 
     37 C          27.4463   29.3863   -0.1987 C.2       5 UNK         0.5055 
     38 O          27.3192   30.4908   -0.7309 O.2       5 UNK        -0.5220 
     39 N          27.0438   29.1007    1.0501 N.am      6 UNK        -0.4450 
     40 CA         26.3745   29.9780    2.0190 C.3       6 UNK         0.0367 
     41 CB         24.9959   30.4479    1.5101 C.3       6 UNK        -0.1929 
     42 C          27.2514   31.1539    2.4781 C.2       6 UNK         0.5070 
     43 O          27.7140   31.1603    3.6188 O.2       6 UNK        -0.5237 
     44 N          27.5043   32.1099    1.5774 N.am      7 UNK        -0.4739 
     45 CA         28.3730   33.2736    1.7756 C.3       7 UNK         0.0276 
     46 CB         27.8834   34.4178    0.8685 C.3       7 UNK        -0.1927 
     47 C          29.8521   32.9119    1.5331 C.2       7 UNK         0.5013 
     48 O          30.5454   33.5920    0.7739 O.2       7 UNK        -0.5193 
     49 N          30.2963   31.8192    2.1615 N.am      8 UNK        -0.4253 
     50 CA         31.6536   31.2896    2.0863 C.3       8 UNK         0.0242 
     51 CB         31.6081   29.8017    2.4558 C.3       8 UNK        -0.2000 
     52 C          32.6024   32.0359    3.0337 C.2       8 UNK         0.4948 
     53 O          32.1569   32.6459    4.0105 O.2       8 UNK        -0.5275 
     54 N          33.9089   31.9170    2.7686 N.am      9 UNK        -0.4246 
     55 CA         34.9951   32.4792    3.5759 C.3       9 UNK         0.0261 
     56 CB         36.2588   32.5866    2.7007 C.3       9 UNK        -0.1959 
     57 C          35.2361   31.6812    4.8760 C.2       9 UNK         0.5033 
     58 O          36.3351   31.1628    5.0795 O.2       9 UNK        -0.5390 
     59 N          34.1985   31.6145    5.7229 N.am      10 UNK        -0.4215 
     60 CA         34.1355   30.9919    7.0500 C.3       10 UNK         0.0240 
     61 CB         35.0318   31.7554    8.0486 C.3       10 UNK        -0.1982 
     62 C          34.4394   29.4813    7.0286 C.2       10 UNK         0.4970 
     63 O          35.5611   29.0722    7.3361 O.2       10 UNK        -0.4916 
     64 N          33.4217   28.6768    6.6915 N.am      11 UNK        -0.4279 
     65 CA         33.4711   27.2032    6.7555 C.3       11 UNK         0.1003 
     66 C          33.6575   26.6160    8.1874 C.2       11 UNK         0.5709 
     67 N          33.3553   27.3486    9.2534 N.am      11 UNK        -0.7358 
     68 O          34.0865   25.4734    8.3300 O.2       11 UNK        -0.4999 
     69 C69        32.2396   26.5465    6.0773 C.3       12 UNK        -0.0954 
     70 S70        32.1068   26.9006    4.2957 S.3       12 UNK        -0.2268 
     71 C71        33.1555   25.5815    3.5988 C.3       12 UNK         0.0203 
     72 H72        25.3152   19.8126    1.4902 H         1 UNK         0.0888 
     73 H73        26.9393   19.4351    2.0699 H         1 UNK         0.0888 
     74 H74        25.9379   20.5970    2.9441 H         1 UNK         0.0888 
     75 H75        28.5316   20.4346    0.8294 H         1 UNK         0.3017 
     76 H76        27.9922   22.4447   -1.0570 H         1 UNK         0.0873 
     77 H77        30.4434   22.5049   -1.4439 H         1 UNK         0.0745 
     78 H78        29.7770   20.9052   -1.4787 H         1 UNK         0.0745 
     79 H79        32.8576   22.0050   -1.0883 H         1 UNK         0.0705 
     80 H80        33.5431   21.6212    0.4664 H         1 UNK         0.0705 
     81 H81        33.0454   23.1199    2.4675 H         1 UNK         0.1334 
     82 H82        32.6045   27.2710    1.4850 H         1 UNK         0.1417 
     83 H83        32.1791   24.2935   -1.5620 H         1 UNK         0.1562 
     84 H84        32.8108   26.8141   -2.0177 H         1 UNK         0.0748 
     85 H85        32.3656   27.9694   -0.7916 H         1 UNK         0.0748 
     86 H86        30.0805   28.9363   -0.5048 H         1 UNK         0.0940 
     87 H87        29.6087   27.4922    0.3701 H         1 UNK         0.0940 
     88 H88        28.0661   28.5563   -2.0538 H         1 UNK         0.0703 
     89 H89        27.6830   26.2150   -0.4752 H         1 UNK         0.3081 
     90 H90        24.1914   25.7857   -1.2686 H         1 UNK         0.0719 
     91 H91        25.4453   24.6932   -3.0737 H         1 UNK         0.0809 
     92 H92        26.7506   24.2622   -1.9845 H         1 UNK         0.0809 
     93 H93        25.1603   23.5251   -1.7919 H         1 UNK         0.0809 
     94 H94        25.9226   24.3348    0.4786 H         1 UNK         0.2990 
     95 H95        25.2960   26.2676    3.4132 H         1 UNK         0.0690 
     96 H96        24.5671   24.0591    4.2904 H         1 UNK         0.0788 
     97 H97        24.3150   23.4633    2.6496 H         1 UNK         0.0788 
     98 H98        23.3167   24.7647    3.2794 H         1 UNK         0.0788 
     99 H99        26.7646   23.8471    2.8350 H         1 UNK         0.2993 
    100 H100       29.8993   25.4670    2.2587 H         1 UNK         0.0949 
    101 H101       29.5682   25.2500    4.7474 H         1 UNK         0.0767 
    102 H102       28.8348   23.6700    4.5139 H         1 UNK         0.0767 
    103 H103       30.5278   23.9333    4.0944 H         1 UNK         0.0767 
    104 H104       29.2250   22.7195    2.2488 H         1 UNK         0.3013 
    105 H105       27.2647   28.1767    1.4184 H         1 UNK         0.3121 
    106 H106       26.1976   29.3579    2.8996 H         1 UNK         0.0774 
    107 H107       24.3492   29.5993    1.2888 H         1 UNK         0.0815 
    108 H108       24.4895   31.0519    2.2639 H         1 UNK         0.0815 
    109 H109       25.0677   31.0522    0.6058 H         1 UNK         0.0815 
    110 H110       27.1993   31.9260    0.6258 H         1 UNK         0.2987 
    111 H111       28.2914   33.6095    2.8119 H         1 UNK         0.0949 
    112 H112       26.8457   34.6756    1.0810 H         1 UNK         0.0806 
    113 H113       28.4770   35.3202    1.0206 H         1 UNK         0.0806 
    114 H114       27.9540   34.1529   -0.1873 H         1 UNK         0.0806 
    115 H115       29.6615   31.3652    2.8079 H         1 UNK         0.3010 
    116 H116       32.0220   31.3935    1.0632 H         1 UNK         0.0829 
    117 H117       32.6054   29.3620    2.4324 H         1 UNK         0.0813 
    118 H118       31.2117   29.6526    3.4611 H         1 UNK         0.0813 
    119 H119       30.9833   29.2352    1.7665 H         1 UNK         0.0813 
    120 H120       34.1909   31.3618    1.9731 H         1 UNK         0.3038 
    121 H121       34.7161   33.4929    3.8724 H         1 UNK         0.0769 
    122 H122       37.0809   33.0409    3.2556 H         1 UNK         0.0811 
    123 H123       36.0827   33.2085    1.8227 H         1 UNK         0.0811 
    124 H124       36.5984   31.6084    2.3577 H         1 UNK         0.0811 
    125 H125       33.3358   32.0448    5.3945 H         1 UNK         0.3204 
    126 H126       33.1060   31.1065    7.3933 H         1 UNK         0.0748 
    127 H127       34.9496   31.3301    9.0497 H         1 UNK         0.0771 
    128 H128       36.0846   31.7168    7.7661 H         1 UNK         0.0771 
    129 H129       34.7434   32.8043    8.1174 H         1 UNK         0.0771 
    130 H130       32.5330   29.0793    6.4341 H         1 UNK         0.2980 
    131 H131       34.3557   26.8952    6.1947 H         1 UNK         0.0545 
    132 H132       32.9948   28.2830    9.1504 H         1 UNK         0.3459 
    133 H133       33.4841   26.9559   10.1726 H         1 UNK         0.3459 
    134 H134       32.2474   25.4629    6.2100 H         1 UNK         0.0616 
    135 H135       31.3213   26.8924    6.5550 H         1 UNK         0.0616 
    136 H136       34.1995   25.8888    3.6689 H         1 UNK         0.0634 
    137 H137       33.0542   24.6872    4.2149 H         1 UNK         0.0634 
@<TRIPOS>BOND
     1    1    2 1    
     2    1   72 1    
     3    1   73 1    
     4    1   74 1    
     5    2    3 2    
     6    2    4 am   BACKBONE|DICT|INTERRES
     7    4    5 1    
     8    4   75 1    
     9    5    6 1    
    10    5   35 1    
    11    5   76 1    
    12    6    7 1    
    13    6   77 1    
    14    6   78 1    
    15    7    8 1    
    16    8    9 1    
    17    8   79 1    
    18    8   80 1    
    19    9   10 ar   
    20    9   14 ar   
    21   10   11 ar   
    22   10   81 1    
    23   11   12 ar   
    24   11   71 1    
    25   12   13 ar   
    26   12   82 1    
    27   13   14 ar   
    28   13   15 1    
    29   14   83 1    
    30   15   16 1    
    31   15   84 1    
    32   15   85 1    
    33   16   17 1    
    34   17   18 1    
    35   17   86 1    
    36   17   87 1    
    37   18   19 1    
    38   18   37 1    
    39   18   88 1    
    40   19   20 am   BACKBONE|DICT|INTERRES
    41   19   89 1    
    42   20   21 2    
    43   20   22 1    
    44   22   23 1    
    45   22   24 1    
    46   22   90 1    
    47   23   91 1    
    48   23   92 1    
    49   23   93 1    
    50   24   25 am   BACKBONE|DICT|INTERRES
    51   24   94 1    
    52   25   26 2    
    53   25   27 1    
    54   27   28 1    
    55   27   29 1    
    56   27   95 1    
    57   28   96 1    
    58   28   97 1    
    59   28   98 1    
    60   29   30 am   BACKBONE|DICT|INTERRES
    61   29   99 1    
    62   30   31 2    
    63   30   32 1    
    64   32   33 1    
    65   32   34 1    
    66   32  100 1    
    67   33  101 1    
    68   33  102 1    
    69   33  103 1    
    70   34   35 am   BACKBONE|DICT|INTERRES
    71   34  104 1    
    72   35   36 2    
    73   37   38 2    
    74   37   39 am   BACKBONE|DICT|INTERRES
    75   39   40 1    
    76   39  105 1    
    77   40   41 1    
    78   40   42 1    
    79   40  106 1    
    80   41  107 1    
    81   41  108 1    
    82   41  109 1    
    83   42   43 2    
    84   42   44 am   BACKBONE|DICT|INTERRES
    85   44   45 1    
    86   44  110 1    
    87   45   46 1    
    88   45   47 1    
    89   45  111 1    
    90   46  112 1    
    91   46  113 1    
    92   46  114 1    
    93   47   48 2    
    94   47   49 am   BACKBONE|DICT|INTERRES
    95   49   50 1    
    96   49  115 1    
    97   50   51 1    
    98   50   52 1    
    99   50  116 1    
   100   51  117 1    
   101   51  118 1    
   102   51  119 1    
   103   52   53 2    
   104   52   54 am   BACKBONE|DICT|INTERRES
   105   54   55 1    
   106   54  120 1    
   107   55   56 1    
   108   55   57 1    
   109   55  121 1    
   110   56  122 1    
   111   56  123 1    
   112   56  124 1    
   113   57   58 2    
   114   57   59 am   BACKBONE|DICT|INTERRES
   115   59   60 1    
   116   59  125 1    
   117   60   61 1    
   118   60   62 1    
   119   60  126 1    
   120   61  127 1    
   121   61  128 1    
   122   61  129 1    
   123   62   63 2    
   124   62   64 am   BACKBONE|DICT|INTERRES
   125   64   65 1    
   126   64  130 1    
   127   65   66 1    
   128   65   69 1    
   129   65  131 1    
   130   66   67 am   BACKBONE|DICT|INTERRES
   131   66   68 2    
   132   67  132 1    
   133   67  133 1    
   134   69   70 1    
   135   69  134 1    
   136   69  135 1    
   137   70   71 1    
   138   71  136 1    
   139   71  137 1    
@<TRIPOS>SUBSTRUCTURE
     1 UNK         1 GROUP             0       ****    0 ROOT    
