@<TRIPOS>MOLECULE
3R136
137   139    1
SMALL
USER_CHARGES


@<TRIPOS>ATOM
      1 CA         28.5273   22.3636    5.7545 C.3       0 UNK        -0.1979 
      2 C          28.4130   21.7686    4.3587 C.2       0 UNK         0.4864 
      3 O          27.8306   20.6947    4.1972 O.2       0 UNK        -0.5359 
      4 N          28.9691   22.4554    3.3544 N.am      1 UNK        -0.4318 
      5 CA         28.8992   22.0728    1.9416 C.3       1 UNK         0.0824 
      6 C6         30.1344   22.5535    1.1383 C.3       12 UNK        -0.0944 
      7 S7         31.7089   21.9647    1.8591 S.3       12 UNK        -0.2672 
      8 C8         32.8921   23.2859    1.4033 C.3       12 UNK         0.0333 
      9 C9         32.4779   24.7003    1.8114 C.ar      12 UNK        -0.0807 
     10 C10        32.8083   25.7749    0.9803 C.ar      12 UNK        -0.0894 
     11 C11        32.4037   27.0755    1.2961 C.ar      12 UNK        -0.0804 
     12 C12        31.6483   27.2986    2.4503 C.ar      12 UNK        -0.0824 
     13 C13        31.3032   26.2336    3.2880 C.ar      12 UNK        -0.0762 
     14 C14        31.7549   24.9466    2.9838 C.ar      12 UNK        -0.0782 
     15 C15        30.4134   26.4475    4.5033 C.3       12 UNK         0.0230 
     16 S16        28.7516   25.7525    4.2137 S.3       12 UNK        -0.2608 
     17 C17        27.6967   27.2322    4.0545 C.3       12 UNK        -0.0989 
     18 CA         28.0613   28.1483    2.8616 C.3       5 UNK         0.0716 
     19 N          28.0590   27.4513    1.5681 N.am      5 UNK        -0.4135 
     20 C          28.6325   27.9321    0.4547 C.2       4 UNK         0.5031 
     21 O          29.2057   29.0204    0.4053 O.2       4 UNK        -0.5229 
     22 CA         28.4894   27.1118   -0.8379 C.3       4 UNK         0.0329 
     23 CB         29.6764   26.1529   -1.0024 C.3       4 UNK        -0.2001 
     24 N          27.2370   26.3590   -0.9554 N.am      4 UNK        -0.4303 
     25 C          25.9983   26.8643   -0.8930 C.2       3 UNK         0.5044 
     26 O          25.7596   28.0396   -0.6136 O.2       3 UNK        -0.5152 
     27 CA         24.8184   25.9150   -1.1843 C.3       3 UNK         0.0319 
     28 CB         24.4758   25.9183   -2.6867 C.3       3 UNK        -0.2001 
     29 N          24.9615   24.5418   -0.6729 N.am      3 UNK        -0.4354 
     30 C          25.8435   23.5940   -1.0226 C.2       2 UNK         0.4964 
     31 O          26.7253   23.7403   -1.8718 O.2       2 UNK        -0.5047 
     32 CA         25.7413   22.2574   -0.2686 C.3       2 UNK         0.0288 
     33 CB         25.3304   21.1236   -1.2228 C.3       2 UNK        -0.2113 
     34 N          26.9978   21.9015    0.3976 N.am      2 UNK        -0.4145 
     35 C          27.5990   22.6404    1.3412 C.2       1 UNK         0.5006 
     36 O          27.1708   23.7306    1.7331 O.2       1 UNK        -0.5103 
     37 C          27.2430   29.4622    2.8847 C.2       5 UNK         0.5055 
     38 O          27.2946   30.1787    3.8854 O.2       5 UNK        -0.5220 
     39 N          26.5292   29.7937    1.7977 N.am      6 UNK        -0.4450 
     40 CA         25.9536   31.1222    1.5813 C.3       6 UNK         0.0367 
     41 CB         24.9219   31.0518    0.4445 C.3       6 UNK        -0.1929 
     42 C          27.0189   32.1944    1.2715 C.2       6 UNK         0.5070 
     43 O          26.7550   33.3742    1.5059 O.2       6 UNK        -0.5237 
     44 N          28.1848   31.7907    0.7404 N.am      7 UNK        -0.4739 
     45 CA         29.2731   32.7000    0.3686 C.3       7 UNK         0.0276 
     46 CB         30.1673   32.0304   -0.6882 C.3       7 UNK        -0.1927 
     47 C          30.1148   33.1483    1.5739 C.2       7 UNK         0.5013 
     48 O          30.5094   34.3137    1.6320 O.2       7 UNK        -0.5193 
     49 N          30.3783   32.2248    2.5047 N.am      8 UNK        -0.4253 
     50 CA         31.1787   32.4209    3.7116 C.3       8 UNK         0.0242 
     51 CB         32.6768   32.5041    3.3555 C.3       8 UNK        -0.2000 
     52 C          30.9197   31.2430    4.6550 C.2       8 UNK         0.4948 
     53 O          30.4701   30.1928    4.1968 O.2       8 UNK        -0.5275 
     54 N          31.2399   31.4185    5.9448 N.am      9 UNK        -0.4246 
     55 CA         31.0686   30.4029    6.9942 C.3       9 UNK         0.0261 
     56 CB         31.3818   31.0282    8.3634 C.3       9 UNK        -0.1959 
     57 C          31.9024   29.1233    6.7838 C.2       9 UNK         0.5033 
     58 O          31.4914   28.0561    7.2407 O.2       9 UNK        -0.5390 
     59 N          33.0363   29.2514    6.0885 N.am      10 UNK        -0.4215 
     60 CA         33.9035   28.1781    5.6187 C.3       10 UNK         0.0240 
     61 CB         34.7256   27.5894    6.7809 C.3       10 UNK        -0.1982 
     62 C          34.8186   28.7758    4.5454 C.2       10 UNK         0.4970 
     63 O          35.1230   29.9704    4.6175 O.2       10 UNK        -0.4916 
     64 N          35.2489   27.9417    3.5937 N.am      11 UNK        -0.4279 
     65 CA         36.1641   28.3167    2.4995 C.3       11 UNK         0.1003 
     66 C          37.4892   27.5005    2.5076 C.2       11 UNK         0.5709 
     67 N          37.7636   26.6829    3.5183 N.am      11 UNK        -0.7358 
     68 O          38.2986   27.6229    1.5909 O.2       11 UNK        -0.4999 
     69 C69        35.4680   28.2779    1.1109 C.3       12 UNK        -0.0954 
     70 S70        33.9949   29.3537    1.0278 S.3       12 UNK        -0.2268 
     71 C71        32.7326   28.2291    0.3571 C.3       12 UNK         0.0203 
     72 H72        28.8084   21.5933    6.4721 H         1 UNK         0.0888 
     73 H73        29.2786   23.1519    5.7982 H         1 UNK         0.0888 
     74 H74        27.5708   22.7856    6.0615 H         1 UNK         0.0888 
     75 H75        29.3374   23.3792    3.5321 H         1 UNK         0.3017 
     76 H76        28.8617   20.9831    1.8747 H         1 UNK         0.0873 
     77 H77        30.0821   22.2034    0.1058 H         1 UNK         0.0745 
     78 H78        30.1417   23.6411    1.0901 H         1 UNK         0.0745 
     79 H79        33.8569   23.0617    1.8596 H         1 UNK         0.0705 
     80 H80        33.0430   23.2385    0.3236 H         1 UNK         0.0705 
     81 H81        33.3692   25.5966    0.0730 H         1 UNK         0.1334 
     82 H82        31.3182   28.3018    2.6785 H         1 UNK         0.1417 
     83 H83        31.4981   24.1272    3.6399 H         1 UNK         0.1562 
     84 H84        30.3445   27.5050    4.7589 H         1 UNK         0.0748 
     85 H85        30.8587   25.9550    5.3690 H         1 UNK         0.0748 
     86 H86        27.7640   27.7825    4.9954 H         1 UNK         0.0940 
     87 H87        26.6601   26.9007    3.9720 H         1 UNK         0.0940 
     88 H88        29.0871   28.4712    3.0171 H         1 UNK         0.0703 
     89 H89        27.6144   26.5440    1.5404 H         1 UNK         0.3081 
     90 H90        28.5089   27.8185   -1.6698 H         1 UNK         0.0719 
     91 H91        29.7444   25.4582   -0.1669 H         1 UNK         0.0809 
     92 H92        29.6002   25.5716   -1.9214 H         1 UNK         0.0809 
     93 H93        30.6161   26.7033   -1.0459 H         1 UNK         0.0809 
     94 H94        27.3116   25.3807   -1.2228 H         1 UNK         0.2990 
     95 H95        23.9588   26.3310   -0.6561 H         1 UNK         0.0690 
     96 H96        23.5875   25.3210   -2.8922 H         1 UNK         0.0788 
     97 H97        25.2922   25.5254   -3.2935 H         1 UNK         0.0788 
     98 H98        24.2725   26.9315   -3.0365 H         1 UNK         0.0788 
     99 H99        24.3177   24.3120    0.0720 H         1 UNK         0.2993 
    100 H100       24.9754   22.3447    0.5053 H         1 UNK         0.0949 
    101 H101       26.0778   20.9598   -2.0005 H         1 UNK         0.0767 
    102 H102       25.1898   20.1841   -0.6878 H         1 UNK         0.0767 
    103 H103       24.3879   21.3556   -1.7209 H         1 UNK         0.0767 
    104 H104       27.4281   21.0353    0.1080 H         1 UNK         0.3013 
    105 H105       26.4844   29.1483    1.0155 H         1 UNK         0.3121 
    106 H106       25.4334   31.4259    2.4924 H         1 UNK         0.0774 
    107 H107       25.3854   30.7761   -0.5036 H         1 UNK         0.0815 
    108 H108       24.4341   32.0167    0.3003 H         1 UNK         0.0815 
    109 H109       24.1411   30.3221    0.6601 H         1 UNK         0.0815 
    110 H110       28.3537   30.7988    0.5954 H         1 UNK         0.2987 
    111 H111       28.8379   33.5950   -0.0821 H         1 UNK         0.0949 
    112 H112       30.6720   31.1480   -0.2929 H         1 UNK         0.0806 
    113 H113       29.5912   31.7240   -1.5613 H         1 UNK         0.0806 
    114 H114       30.9410   32.7173   -1.0338 H         1 UNK         0.0806 
    115 H115       29.9904   31.2928    2.4154 H         1 UNK         0.3010 
    116 H116       30.8585   33.3420    4.2029 H         1 UNK         0.0829 
    117 H117       32.8877   33.3420    2.6913 H         1 UNK         0.0813 
    118 H118       33.2895   32.6416    4.2471 H         1 UNK         0.0813 
    119 H119       33.0214   31.5938    2.8634 H         1 UNK         0.0813 
    120 H120       31.6121   32.3111    6.2370 H         1 UNK         0.3038 
    121 H121       30.0182   30.1034    6.9879 H         1 UNK         0.0769 
    122 H122       32.4140   31.3757    8.4226 H         1 UNK         0.0811 
    123 H123       31.2364   30.3028    9.1654 H         1 UNK         0.0811 
    124 H124       30.7278   31.8746    8.5738 H         1 UNK         0.0811 
    125 H125       33.3050   30.1657    5.7452 H         1 UNK         0.3204 
    126 H126       33.2863   27.3987    5.1679 H         1 UNK         0.0748 
    127 H127       35.3934   26.8020    6.4298 H         1 UNK         0.0771 
    128 H128       35.3405   28.3504    7.2632 H         1 UNK         0.0771 
    129 H129       34.0828   27.1479    7.5425 H         1 UNK         0.0771 
    130 H130       34.9426   26.9796    3.5964 H         1 UNK         0.2980 
    131 H131       36.4966   29.3449    2.6509 H         1 UNK         0.0545 
    132 H132       38.6301   26.1680    3.5100 H         1 UNK         0.3459 
    133 H133       37.1349   26.5966    4.2995 H         1 UNK         0.3459 
    134 H134       35.2006   27.2533    0.8524 H         1 UNK         0.0616 
    135 H135       36.1527   28.6150    0.3308 H         1 UNK         0.0616 
    136 H136       33.0670   27.8582   -0.6128 H         1 UNK         0.0634 
    137 H137       31.8275   28.8050    0.1651 H         1 UNK         0.0634 
@<TRIPOS>BOND
     1    1    2 1    
     2    1   72 1    
     3    1   73 1    
     4    1   74 1    
     5    2    3 2    
     6    2    4 am   BACKBONE|DICT|INTERRES
     7    4    5 1    
     8    4   75 1    
     9    5    6 1    
    10    5   35 1    
    11    5   76 1    
    12    6    7 1    
    13    6   77 1    
    14    6   78 1    
    15    7    8 1    
    16    8    9 1    
    17    8   79 1    
    18    8   80 1    
    19    9   10 ar   
    20    9   14 ar   
    21   10   11 ar   
    22   10   81 1    
    23   11   12 ar   
    24   11   71 1    
    25   12   13 ar   
    26   12   82 1    
    27   13   14 ar   
    28   13   15 1    
    29   14   83 1    
    30   15   16 1    
    31   15   84 1    
    32   15   85 1    
    33   16   17 1    
    34   17   18 1    
    35   17   86 1    
    36   17   87 1    
    37   18   19 1    
    38   18   37 1    
    39   18   88 1    
    40   19   20 am   BACKBONE|DICT|INTERRES
    41   19   89 1    
    42   20   21 2    
    43   20   22 1    
    44   22   23 1    
    45   22   24 1    
    46   22   90 1    
    47   23   91 1    
    48   23   92 1    
    49   23   93 1    
    50   24   25 am   BACKBONE|DICT|INTERRES
    51   24   94 1    
    52   25   26 2    
    53   25   27 1    
    54   27   28 1    
    55   27   29 1    
    56   27   95 1    
    57   28   96 1    
    58   28   97 1    
    59   28   98 1    
    60   29   30 am   BACKBONE|DICT|INTERRES
    61   29   99 1    
    62   30   31 2    
    63   30   32 1    
    64   32   33 1    
    65   32   34 1    
    66   32  100 1    
    67   33  101 1    
    68   33  102 1    
    69   33  103 1    
    70   34   35 am   BACKBONE|DICT|INTERRES
    71   34  104 1    
    72   35   36 2    
    73   37   38 2    
    74   37   39 am   BACKBONE|DICT|INTERRES
    75   39   40 1    
    76   39  105 1    
    77   40   41 1    
    78   40   42 1    
    79   40  106 1    
    80   41  107 1    
    81   41  108 1    
    82   41  109 1    
    83   42   43 2    
    84   42   44 am   BACKBONE|DICT|INTERRES
    85   44   45 1    
    86   44  110 1    
    87   45   46 1    
    88   45   47 1    
    89   45  111 1    
    90   46  112 1    
    91   46  113 1    
    92   46  114 1    
    93   47   48 2    
    94   47   49 am   BACKBONE|DICT|INTERRES
    95   49   50 1    
    96   49  115 1    
    97   50   51 1    
    98   50   52 1    
    99   50  116 1    
   100   51  117 1    
   101   51  118 1    
   102   51  119 1    
   103   52   53 2    
   104   52   54 am   BACKBONE|DICT|INTERRES
   105   54   55 1    
   106   54  120 1    
   107   55   56 1    
   108   55   57 1    
   109   55  121 1    
   110   56  122 1    
   111   56  123 1    
   112   56  124 1    
   113   57   58 2    
   114   57   59 am   BACKBONE|DICT|INTERRES
   115   59   60 1    
   116   59  125 1    
   117   60   61 1    
   118   60   62 1    
   119   60  126 1    
   120   61  127 1    
   121   61  128 1    
   122   61  129 1    
   123   62   63 2    
   124   62   64 am   BACKBONE|DICT|INTERRES
   125   64   65 1    
   126   64  130 1    
   127   65   66 1    
   128   65   69 1    
   129   65  131 1    
   130   66   67 am   BACKBONE|DICT|INTERRES
   131   66   68 2    
   132   67  132 1    
   133   67  133 1    
   134   69   70 1    
   135   69  134 1    
   136   69  135 1    
   137   70   71 1    
   138   71  136 1    
   139   71  137 1    
@<TRIPOS>SUBSTRUCTURE
     1 UNK         1 GROUP             0       ****    0 ROOT    
