@<TRIPOS>MOLECULE
3R136
137   139    1
SMALL
USER_CHARGES


@<TRIPOS>ATOM
      1 CA         29.2706   18.0959   -1.1060 C.3       0 UNK        -0.1979 
      2 C          29.3257   19.5395   -1.5842 C.2       0 UNK         0.4864 
      3 O          29.4214   19.7821   -2.7887 O.2       0 UNK        -0.5359 
      4 N          29.2745   20.4972   -0.6503 N.am      1 UNK        -0.4318 
      5 CA         29.2352   21.9356   -0.9271 C.3       1 UNK         0.0824 
      6 C6         29.7062   22.7620    0.3017 C.3       12 UNK        -0.0944 
      7 S7         28.6395   22.5711    1.7774 S.3       12 UNK        -0.2672 
      8 C8         29.8248   22.0565    3.0548 C.3       12 UNK         0.0333 
      9 C9         30.4694   23.2642    3.7146 C.ar      12 UNK        -0.0807 
     10 C10        31.7129   23.7333    3.2815 C.ar      12 UNK        -0.0894 
     11 C11        32.3020   24.8425    3.8961 C.ar      12 UNK        -0.0804 
     12 C12        31.6455   25.4718    4.9588 C.ar      12 UNK        -0.0824 
     13 C13        30.4018   25.0106    5.4005 C.ar      12 UNK        -0.0762 
     14 C14        29.8170   23.9095    4.7695 C.ar      12 UNK        -0.0782 
     15 C15        29.7001   25.6709    6.5797 C.3       12 UNK         0.0230 
     16 S16        28.5528   26.9845    6.0542 S.3       12 UNK        -0.2608 
     17 C17        29.6928   28.3912    5.7998 C.3       12 UNK        -0.0989 
     18 CA         29.5146   29.1152    4.4415 C.3       5 UNK         0.0716 
     19 N          29.5117   28.1779    3.3127 N.am      5 UNK        -0.4135 
     20 C          29.7035   28.5213    2.0333 C.2       4 UNK         0.5031 
     21 O          29.9195   29.6710    1.6583 O.2       4 UNK        -0.5229 
     22 CA         29.5750   27.4085    0.9792 C.3       4 UNK         0.0329 
     23 CB         30.9082   26.6645    0.8123 C.3       4 UNK        -0.2001 
     24 N          28.4937   26.4416    1.2112 N.am      4 UNK        -0.4303 
     25 C          27.2049   26.7444    1.4271 C.2       3 UNK         0.5044 
     26 O          26.7942   27.8897    1.6175 O.2       3 UNK        -0.5152 
     27 CA         26.2159   25.5645    1.3798 C.3       3 UNK         0.0319 
     28 CB         24.7558   25.9952    1.6338 C.3       3 UNK        -0.2001 
     29 N          26.3296   24.8107    0.1224 N.am      3 UNK        -0.4354 
     30 C          26.1857   25.2787   -1.1305 C.2       2 UNK         0.4964 
     31 O          25.8439   26.4312   -1.3979 O.2       2 UNK        -0.5047 
     32 CA         26.5218   24.3004   -2.2762 C.3       2 UNK         0.0288 
     33 CB         26.6625   25.0076   -3.6384 C.3       2 UNK        -0.2113 
     34 N          27.7660   23.5818   -1.9861 N.am      2 UNK        -0.4145 
     35 C          27.8332   22.3803   -1.3997 C.2       1 UNK         0.5006 
     36 O          26.8409   21.6889   -1.1520 O.2       1 UNK        -0.5103 
     37 C          28.3103   30.0850    4.4705 C.2       5 UNK         0.5055 
     38 O          28.3877   31.0946    5.1729 O.2       5 UNK        -0.5220 
     39 N          27.2294   29.7794    3.7392 N.am      6 UNK        -0.4450 
     40 CA         26.0746   30.6612    3.5641 C.3       6 UNK         0.0367 
     41 CB         24.7795   29.8367    3.6534 C.3       6 UNK        -0.1929 
     42 C          26.1543   31.3998    2.2197 C.2       6 UNK         0.5070 
     43 O          25.8192   32.5831    2.1600 O.2       6 UNK        -0.5237 
     44 N          26.5840   30.6923    1.1654 N.am      7 UNK        -0.4739 
     45 CA         26.7049   31.2083   -0.1995 C.3       7 UNK         0.0276 
     46 CB         26.8821   30.0269   -1.1669 C.3       7 UNK        -0.1927 
     47 C          27.8442   32.2266   -0.3804 C.2       7 UNK         0.5013 
     48 O          27.7029   33.1447   -1.1900 O.2       7 UNK        -0.5193 
     49 N          28.9460   32.0481    0.3558 N.am      8 UNK        -0.4253 
     50 CA         30.1381   32.8911    0.3236 C.3       8 UNK         0.0242 
     51 CB         31.0872   32.3992   -0.7912 C.3       8 UNK        -0.2000 
     52 C          30.7763   32.9083    1.7235 C.2       8 UNK         0.4948 
     53 O          30.0580   32.8148    2.7212 O.2       8 UNK        -0.5275 
     54 N          32.1064   33.0491    1.7853 N.am      9 UNK        -0.4246 
     55 CA         32.8905   32.9474    3.0163 C.3       9 UNK         0.0261 
     56 CB         34.2512   33.6319    2.8055 C.3       9 UNK        -0.1959 
     57 C          33.0858   31.4752    3.4137 C.2       9 UNK         0.5033 
     58 O          33.2425   30.6207    2.5375 O.2       9 UNK        -0.5390 
     59 N          33.1094   31.2122    4.7258 N.am      10 UNK        -0.4215 
     60 CA         33.3655   29.8885    5.2949 C.3       10 UNK         0.0240 
     61 CB         32.9686   29.8918    6.7804 C.3       10 UNK        -0.1982 
     62 C          34.8359   29.4690    5.1281 C.2       10 UNK         0.4970 
     63 O          35.7307   30.3157    5.1828 O.2       10 UNK        -0.4916 
     64 N          35.0457   28.1604    4.9621 N.am      11 UNK        -0.4279 
     65 CA         36.3577   27.5108    4.8201 C.3       11 UNK         0.1003 
     66 C          37.1266   27.2876    6.1564 C.2       11 UNK         0.5709 
     67 N          36.5432   27.5608    7.3178 N.am      11 UNK        -0.7358 
     68 O          38.2840   26.8752    6.1371 O.2       11 UNK        -0.4999 
     69 C69        36.2498   26.2131    3.9703 C.3       12 UNK        -0.0954 
     70 S70        34.9796   25.0432    4.5707 S.3       12 UNK        -0.2268 
     71 C71        33.6317   25.3846    3.3965 C.3       12 UNK         0.0203 
     72 H72        29.2047   18.0286   -0.0202 H         1 UNK         0.0888 
     73 H73        28.4015   17.5937   -1.5300 H         1 UNK         0.0888 
     74 H74        30.1642   17.5602   -1.4251 H         1 UNK         0.0888 
     75 H75        29.1494   20.2436    0.3191 H         1 UNK         0.3017 
     76 H76        29.9298   22.1352   -1.7464 H         1 UNK         0.0873 
     77 H77        30.7302   22.4807    0.5505 H         1 UNK         0.0745 
     78 H78        29.7576   23.8222    0.0524 H         1 UNK         0.0745 
     79 H79        29.2941   21.4708    3.8069 H         1 UNK         0.0705 
     80 H80        30.5783   21.3903    2.6321 H         1 UNK         0.0705 
     81 H81        32.2174   23.2404    2.4618 H         1 UNK         0.1334 
     82 H82        32.1128   26.3140    5.4471 H         1 UNK         0.1417 
     83 H83        28.8543   23.5476    5.1051 H         1 UNK         0.1562 
     84 H84        30.4287   26.0728    7.2856 H         1 UNK         0.0748 
     85 H85        29.1342   24.9202    7.1336 H         1 UNK         0.0748 
     86 H86        30.7197   28.0402    5.8762 H         1 UNK         0.0940 
     87 H87        29.5758   29.0859    6.6343 H         1 UNK         0.0940 
     88 H88        30.3870   29.7586    4.3074 H         1 UNK         0.0703 
     89 H89        29.3111   27.2138    3.5383 H         1 UNK         0.3081 
     90 H90        29.3526   27.9013    0.0312 H         1 UNK         0.0719 
     91 H91        31.7362   27.3641    0.6866 H         1 UNK         0.0809 
     92 H92        30.8979   26.0201   -0.0664 H         1 UNK         0.0809 
     93 H93        31.1315   26.0475    1.6806 H         1 UNK         0.0809 
     94 H94        28.7329   25.4673    1.1029 H         1 UNK         0.2990 
     95 H95        26.5039   24.8845    2.1830 H         1 UNK         0.0690 
     96 H96        24.0810   25.1396    1.6160 H         1 UNK         0.0788 
     97 H97        24.4077   26.7129    0.8900 H         1 UNK         0.0788 
     98 H98        24.6548   26.4678    2.6116 H         1 UNK         0.0788 
     99 H99        26.6004   23.8416    0.2257 H         1 UNK         0.2993 
    100 H100       25.6879   23.5989   -2.3514 H         1 UNK         0.0949 
    101 H101       25.7347   25.5090   -3.9174 H         1 UNK         0.0767 
    102 H102       27.4503   25.7619   -3.6233 H         1 UNK         0.0767 
    103 H103       26.8938   24.2962   -4.4315 H         1 UNK         0.0767 
    104 H104       28.6206   24.0983   -2.1399 H         1 UNK         0.3013 
    105 H105       27.2414   28.9439    3.1618 H         1 UNK         0.3121 
    106 H106       26.0460   31.4122    4.3566 H         1 UNK         0.0774 
    107 H107       23.9033   30.4791    3.5566 H         1 UNK         0.0815 
    108 H108       24.7188   29.0844    2.8664 H         1 UNK         0.0815 
    109 H109       24.7022   29.3245    4.6125 H         1 UNK         0.0815 
    110 H110       26.7782   29.7017    1.2947 H         1 UNK         0.2987 
    111 H111       25.7703   31.7156   -0.4490 H         1 UNK         0.0949 
    112 H112       26.0502   29.3253   -1.0959 H         1 UNK         0.0806 
    113 H113       26.9298   30.3710   -2.2009 H         1 UNK         0.0806 
    114 H114       27.7997   29.4746   -0.9634 H         1 UNK         0.0806 
    115 H115       28.9960   31.2680    1.0075 H         1 UNK         0.3010 
    116 H116       29.8425   33.9195    0.1061 H         1 UNK         0.0829 
    117 H117       30.5725   32.3404   -1.7505 H         1 UNK         0.0813 
    118 H118       31.9302   33.0764   -0.9310 H         1 UNK         0.0813 
    119 H119       31.4841   31.4073   -0.5685 H         1 UNK         0.0813 
    120 H120       32.6276   33.0715    0.9214 H         1 UNK         0.3038 
    121 H121       32.3597   33.4676    3.8170 H         1 UNK         0.0769 
    122 H122       34.8270   33.1512    2.0133 H         1 UNK         0.0811 
    123 H123       34.8536   33.5915    3.7142 H         1 UNK         0.0811 
    124 H124       34.1310   34.6833    2.5436 H         1 UNK         0.0811 
    125 H125       33.0273   31.9777    5.3793 H         1 UNK         0.3204 
    126 H126       32.7362   29.1689    4.7667 H         1 UNK         0.0748 
    127 H127       33.0709   28.8976    7.2172 H         1 UNK         0.0771 
    128 H128       33.5939   30.5698    7.3633 H         1 UNK         0.0771 
    129 H129       31.9311   30.1978    6.9154 H         1 UNK         0.0771 
    130 H130       34.2612   27.5281    4.9711 H         1 UNK         0.2980 
    131 H131       36.9914   28.1950    4.2525 H         1 UNK         0.0545 
    132 H132       35.5984   27.9054    7.3493 H         1 UNK         0.3459 
    133 H133       37.0578   27.4172    8.1723 H         1 UNK         0.3459 
    134 H134       36.0258   26.4767    2.9355 H         1 UNK         0.0616 
    135 H135       37.2079   25.6918    3.9294 H         1 UNK         0.0616 
    136 H136       33.5356   26.4592    3.2360 H         1 UNK         0.0634 
    137 H137       33.8883   24.9535    2.4275 H         1 UNK         0.0634 
@<TRIPOS>BOND
     1    1    2 1    
     2    1   72 1    
     3    1   73 1    
     4    1   74 1    
     5    2    3 2    
     6    2    4 am   BACKBONE|DICT|INTERRES
     7    4    5 1    
     8    4   75 1    
     9    5    6 1    
    10    5   35 1    
    11    5   76 1    
    12    6    7 1    
    13    6   77 1    
    14    6   78 1    
    15    7    8 1    
    16    8    9 1    
    17    8   79 1    
    18    8   80 1    
    19    9   10 ar   
    20    9   14 ar   
    21   10   11 ar   
    22   10   81 1    
    23   11   12 ar   
    24   11   71 1    
    25   12   13 ar   
    26   12   82 1    
    27   13   14 ar   
    28   13   15 1    
    29   14   83 1    
    30   15   16 1    
    31   15   84 1    
    32   15   85 1    
    33   16   17 1    
    34   17   18 1    
    35   17   86 1    
    36   17   87 1    
    37   18   19 1    
    38   18   37 1    
    39   18   88 1    
    40   19   20 am   BACKBONE|DICT|INTERRES
    41   19   89 1    
    42   20   21 2    
    43   20   22 1    
    44   22   23 1    
    45   22   24 1    
    46   22   90 1    
    47   23   91 1    
    48   23   92 1    
    49   23   93 1    
    50   24   25 am   BACKBONE|DICT|INTERRES
    51   24   94 1    
    52   25   26 2    
    53   25   27 1    
    54   27   28 1    
    55   27   29 1    
    56   27   95 1    
    57   28   96 1    
    58   28   97 1    
    59   28   98 1    
    60   29   30 am   BACKBONE|DICT|INTERRES
    61   29   99 1    
    62   30   31 2    
    63   30   32 1    
    64   32   33 1    
    65   32   34 1    
    66   32  100 1    
    67   33  101 1    
    68   33  102 1    
    69   33  103 1    
    70   34   35 am   BACKBONE|DICT|INTERRES
    71   34  104 1    
    72   35   36 2    
    73   37   38 2    
    74   37   39 am   BACKBONE|DICT|INTERRES
    75   39   40 1    
    76   39  105 1    
    77   40   41 1    
    78   40   42 1    
    79   40  106 1    
    80   41  107 1    
    81   41  108 1    
    82   41  109 1    
    83   42   43 2    
    84   42   44 am   BACKBONE|DICT|INTERRES
    85   44   45 1    
    86   44  110 1    
    87   45   46 1    
    88   45   47 1    
    89   45  111 1    
    90   46  112 1    
    91   46  113 1    
    92   46  114 1    
    93   47   48 2    
    94   47   49 am   BACKBONE|DICT|INTERRES
    95   49   50 1    
    96   49  115 1    
    97   50   51 1    
    98   50   52 1    
    99   50  116 1    
   100   51  117 1    
   101   51  118 1    
   102   51  119 1    
   103   52   53 2    
   104   52   54 am   BACKBONE|DICT|INTERRES
   105   54   55 1    
   106   54  120 1    
   107   55   56 1    
   108   55   57 1    
   109   55  121 1    
   110   56  122 1    
   111   56  123 1    
   112   56  124 1    
   113   57   58 2    
   114   57   59 am   BACKBONE|DICT|INTERRES
   115   59   60 1    
   116   59  125 1    
   117   60   61 1    
   118   60   62 1    
   119   60  126 1    
   120   61  127 1    
   121   61  128 1    
   122   61  129 1    
   123   62   63 2    
   124   62   64 am   BACKBONE|DICT|INTERRES
   125   64   65 1    
   126   64  130 1    
   127   65   66 1    
   128   65   69 1    
   129   65  131 1    
   130   66   67 am   BACKBONE|DICT|INTERRES
   131   66   68 2    
   132   67  132 1    
   133   67  133 1    
   134   69   70 1    
   135   69  134 1    
   136   69  135 1    
   137   70   71 1    
   138   71  136 1    
   139   71  137 1    
@<TRIPOS>SUBSTRUCTURE
     1 UNK         1 GROUP             0       ****    0 ROOT    
