@<TRIPOS>MOLECULE
3R136
137   139    1
SMALL
USER_CHARGES


@<TRIPOS>ATOM
      1 CA         28.7133   21.2773   -1.8329 C.3       0 UNK        -0.1979 
      2 C          27.3893   21.3432   -1.0783 C.2       0 UNK         0.4864 
      3 O          26.3436   21.1212   -1.6867 O.2       0 UNK        -0.5359 
      4 N          27.3635   21.6529    0.2237 N.am      1 UNK        -0.4318 
      5 CA         28.4859   21.9825    1.1059 C.3       1 UNK         0.0824 
      6 C6         28.8106   20.8076    2.0720 C.3       12 UNK        -0.0944 
      7 S7         29.8398   19.5326    1.2767 S.3       12 UNK        -0.2672 
      8 C8         31.4733   19.8445    2.0311 C.3       12 UNK         0.0333 
      9 C9         31.9359   21.2901    1.8772 C.ar      12 UNK        -0.0807 
     10 C10        32.2246   22.0621    3.0069 C.ar      12 UNK        -0.0894 
     11 C11        32.6596   23.3868    2.8855 C.ar      12 UNK        -0.0804 
     12 C12        32.7835   23.9415    1.6027 C.ar      12 UNK        -0.0824 
     13 C13        32.4803   23.1861    0.4668 C.ar      12 UNK        -0.0762 
     14 C14        32.0801   21.8556    0.6084 C.ar      12 UNK        -0.0782 
     15 C15        32.5767   23.8016   -0.9192 C.3       12 UNK         0.0230 
     16 S16        30.9612   24.4414   -1.4595 S.3       12 UNK        -0.2608 
     17 C17        31.0237   26.1577   -0.8516 C.3       12 UNK        -0.0989 
     18 CA         29.8471   26.9940   -1.4092 C.3       5 UNK         0.0716 
     19 N          28.5475   26.5666   -0.8900 N.am      5 UNK        -0.4135 
     20 C          27.3932   26.6483   -1.5673 C.2       4 UNK         0.5031 
     21 O          27.3128   26.9982   -2.7456 O.2       4 UNK        -0.5229 
     22 CA         26.0993   26.2845   -0.8141 C.3       4 UNK         0.0329 
     23 CB         25.7081   24.8272   -1.0956 C.3       4 UNK        -0.2001 
     24 N          26.1972   26.4920    0.6324 N.am      4 UNK        -0.4303 
     25 C          26.2414   27.7001    1.2152 C.2       3 UNK         0.5044 
     26 O          26.1095   28.7592    0.6017 O.2       3 UNK        -0.5152 
     27 CA         26.5069   27.7462    2.7314 C.3       3 UNK         0.0319 
     28 CB         25.1866   27.8850    3.5050 C.3       3 UNK        -0.2001 
     29 N          27.2599   26.6033    3.2583 N.am      3 UNK        -0.4354 
     30 C          28.4663   26.1922    2.8408 C.2       2 UNK         0.4964 
     31 O          29.0965   26.7222    1.9250 O.2       2 UNK        -0.5047 
     32 CA         29.0557   24.9418    3.5141 C.3       2 UNK         0.0288 
     33 CB         28.3341   24.5155    4.8131 C.3       2 UNK        -0.2113 
     34 N          29.1399   23.8125    2.5824 N.am      2 UNK        -0.4145 
     35 C          28.1282   23.2488    1.9037 C.2       1 UNK         0.5006 
     36 O          26.9660   23.6687    1.9154 O.2       1 UNK        -0.5103 
     37 C          30.0279   28.5003   -1.1496 C.2       5 UNK         0.5055 
     38 O          30.2900   29.2408   -2.0992 O.2       5 UNK        -0.5220 
     39 N          29.8289   28.9398    0.1012 N.am      6 UNK        -0.4450 
     40 CA         29.7728   30.3489    0.4886 C.3       6 UNK         0.0367 
     41 CB         31.1672   31.0049    0.4529 C.3       6 UNK        -0.1929 
     42 C          29.1587   30.4602    1.8861 C.2       6 UNK         0.5070 
     43 O          29.5350   29.7021    2.7790 O.2       6 UNK        -0.5237 
     44 N          28.2379   31.4144    2.0593 N.am      7 UNK        -0.4739 
     45 CA         27.5608   31.6866    3.3323 C.3       7 UNK         0.0276 
     46 CB         26.0977   32.0606    3.0414 C.3       7 UNK        -0.1927 
     47 C          28.2523   32.7876    4.1574 C.2       7 UNK         0.5013 
     48 O          27.8371   33.0375    5.2903 O.2       7 UNK        -0.5193 
     49 N          29.2820   33.4360    3.5945 N.am      8 UNK        -0.4253 
     50 CA         30.0318   34.5508    4.1837 C.3       8 UNK         0.0242 
     51 CB         30.7369   35.3207    3.0507 C.3       8 UNK        -0.2000 
     52 C          31.0106   34.0986    5.2875 C.2       8 UNK         0.4948 
     53 O          32.2146   34.3448    5.1838 O.2       8 UNK        -0.5275 
     54 N          30.4745   33.4331    6.3199 N.am      9 UNK        -0.4246 
     55 CA         31.1351   32.8404    7.4918 C.3       9 UNK         0.0261 
     56 CB         31.8497   33.9059    8.3473 C.3       9 UNK        -0.1959 
     57 C          32.0707   31.6671    7.1499 C.2       9 UNK         0.5033 
     58 O          31.8757   30.5693    7.6739 O.2       9 UNK        -0.5390 
     59 N          33.0525   31.9101    6.2765 N.am      10 UNK        -0.4215 
     60 CA         33.9332   30.8982    5.7011 C.3       10 UNK         0.0240 
     61 CB         35.2922   31.5388    5.3752 C.3       10 UNK        -0.1982 
     62 C          33.2846   30.3301    4.4323 C.2       10 UNK         0.4970 
     63 O          32.7344   31.0967    3.6390 O.2       10 UNK        -0.4916 
     64 N          33.3866   29.0091    4.2551 N.am      11 UNK        -0.4279 
     65 CA         32.8418   28.2779    3.1010 C.3       11 UNK         0.1003 
     66 C          33.7191   28.3235    1.8146 C.2       11 UNK         0.5709 
     67 N          34.8840   28.9608    1.8226 N.am      11 UNK        -0.7358 
     68 O          33.3306   27.7795    0.7856 O.2       11 UNK        -0.4999 
     69 C69        32.4169   26.8420    3.4982 C.3       12 UNK        -0.0954 
     70 S70        33.8121   25.7670    3.9798 S.3       12 UNK        -0.2268 
     71 C71        32.9785   24.1541    4.1737 C.3       12 UNK         0.0203 
     72 H72        28.5799   20.7755   -2.7909 H         1 UNK         0.0888 
     73 H73        29.0817   22.2817   -2.0328 H         1 UNK         0.0888 
     74 H74        29.4719   20.7267   -1.2816 H         1 UNK         0.0888 
     75 H75        26.4634   21.7733    0.6689 H         1 UNK         0.3017 
     76 H76        29.3649   22.2450    0.5177 H         1 UNK         0.0873 
     77 H77        29.3277   21.1420    2.9734 H         1 UNK         0.0745 
     78 H78        27.8918   20.3385    2.4290 H         1 UNK         0.0745 
     79 H79        32.2077   19.1854    1.5663 H         1 UNK         0.0705 
     80 H80        31.4304   19.5606    3.0838 H         1 UNK         0.0705 
     81 H81        32.1214   21.6255    3.9916 H         1 UNK         0.1334 
     82 H82        33.1159   24.9602    1.4672 H         1 UNK         0.1417 
     83 H83        31.8548   21.2652   -0.2697 H         1 UNK         0.1562 
     84 H84        32.9111   23.0473   -1.6331 H         1 UNK         0.0748 
     85 H85        33.3275   24.5931   -0.9422 H         1 UNK         0.0748 
     86 H86        31.9736   26.5907   -1.1708 H         1 UNK         0.0940 
     87 H87        31.0354   26.1565    0.2392 H         1 UNK         0.0940 
     88 H88        29.8492   26.8630   -2.4939 H         1 UNK         0.0703 
     89 H89        28.5265   26.3361    0.0972 H         1 UNK         0.3081 
     90 H90        25.3035   26.9282   -1.1957 H         1 UNK         0.0719 
     91 H91        25.5611   24.6603   -2.1636 H         1 UNK         0.0809 
     92 H92        26.4838   24.1390   -0.7642 H         1 UNK         0.0809 
     93 H93        24.7796   24.5564   -0.5929 H         1 UNK         0.0809 
     94 H94        26.3159   25.6659    1.2087 H         1 UNK         0.2990 
     95 H95        27.1025   28.6371    2.9252 H         1 UNK         0.0690 
     96 H96        25.3637   28.0316    4.5706 H         1 UNK         0.0788 
     97 H97        24.5545   27.0041    3.3853 H         1 UNK         0.0788 
     98 H98        24.6167   28.7462    3.1529 H         1 UNK         0.0788 
     99 H99        26.8126   26.0712    3.9907 H         1 UNK         0.2993 
    100 H100       30.0782   25.2010    3.7816 H         1 UNK         0.0949 
    101 H101       28.8590   23.6893    5.2931 H         1 UNK         0.0767 
    102 H102       28.3039   25.3325    5.5355 H         1 UNK         0.0767 
    103 H103       27.3093   24.1881    4.6332 H         1 UNK         0.0767 
    104 H104       30.0663   23.4242    2.4625 H         1 UNK         0.3013 
    105 H105       29.6133   28.2770    0.8447 H         1 UNK         0.3121 
    106 H106       29.1215   30.8665   -0.2192 H         1 UNK         0.0774 
    107 H107       31.1202   32.0441    0.7801 H         1 UNK         0.0815 
    108 H108       31.8680   30.4928    1.1098 H         1 UNK         0.0815 
    109 H109       31.5912   31.0042   -0.5508 H         1 UNK         0.0815 
    110 H110       27.9704   31.9909    1.2732 H         1 UNK         0.2987 
    111 H111       27.5587   30.7868    3.9515 H         1 UNK         0.0949 
    112 H112       26.0226   32.9732    2.4490 H         1 UNK         0.0806 
    113 H113       25.5875   31.2641    2.4986 H         1 UNK         0.0806 
    114 H114       25.5434   32.2254    3.9665 H         1 UNK         0.0806 
    115 H115       29.5827   33.1263    2.6827 H         1 UNK         0.3010 
    116 H116       29.3197   35.2332    4.6530 H         1 UNK         0.0829 
    117 H117       30.0223   35.6874    2.3136 H         1 UNK         0.0813 
    118 H118       31.2699   36.1891    3.4405 H         1 UNK         0.0813 
    119 H119       31.4659   34.6964    2.5321 H         1 UNK         0.0813 
    120 H120       29.4743   33.2566    6.2538 H         1 UNK         0.3038 
    121 H121       30.3287   32.4277    8.1003 H         1 UNK         0.0769 
    122 H122       32.2620   33.4616    9.2542 H         1 UNK         0.0811 
    123 H123       31.1602   34.6913    8.6567 H         1 UNK         0.0811 
    124 H124       32.6761   34.3777    7.8154 H         1 UNK         0.0811 
    125 H125       33.0423   32.8223    5.8222 H         1 UNK         0.3204 
    126 H126       34.0912   30.0946    6.4239 H         1 UNK         0.0748 
    127 H127       35.7585   31.9528    6.2695 H         1 UNK         0.0771 
    128 H128       35.9828   30.8033    4.9608 H         1 UNK         0.0771 
    129 H129       35.1945   32.3446    4.6460 H         1 UNK         0.0771 
    130 H130       33.8791   28.4484    4.9350 H         1 UNK         0.2980 
    131 H131       31.9208   28.7830    2.8127 H         1 UNK         0.0545 
    132 H132       35.2143   29.4151    2.6576 H         1 UNK         0.3459 
    133 H133       35.4366   28.9833    0.9805 H         1 UNK         0.3459 
    134 H134       31.7209   26.8907    4.3368 H         1 UNK         0.0616 
    135 H135       31.8597   26.3825    2.6819 H         1 UNK         0.0616 
    136 H136       32.0631   24.2929    4.7496 H         1 UNK         0.0634 
    137 H137       33.6299   23.5311    4.7885 H         1 UNK         0.0634 
@<TRIPOS>BOND
     1    1    2 1    
     2    1   72 1    
     3    1   73 1    
     4    1   74 1    
     5    2    3 2    
     6    2    4 am   BACKBONE|DICT|INTERRES
     7    4    5 1    
     8    4   75 1    
     9    5    6 1    
    10    5   35 1    
    11    5   76 1    
    12    6    7 1    
    13    6   77 1    
    14    6   78 1    
    15    7    8 1    
    16    8    9 1    
    17    8   79 1    
    18    8   80 1    
    19    9   10 ar   
    20    9   14 ar   
    21   10   11 ar   
    22   10   81 1    
    23   11   12 ar   
    24   11   71 1    
    25   12   13 ar   
    26   12   82 1    
    27   13   14 ar   
    28   13   15 1    
    29   14   83 1    
    30   15   16 1    
    31   15   84 1    
    32   15   85 1    
    33   16   17 1    
    34   17   18 1    
    35   17   86 1    
    36   17   87 1    
    37   18   19 1    
    38   18   37 1    
    39   18   88 1    
    40   19   20 am   BACKBONE|DICT|INTERRES
    41   19   89 1    
    42   20   21 2    
    43   20   22 1    
    44   22   23 1    
    45   22   24 1    
    46   22   90 1    
    47   23   91 1    
    48   23   92 1    
    49   23   93 1    
    50   24   25 am   BACKBONE|DICT|INTERRES
    51   24   94 1    
    52   25   26 2    
    53   25   27 1    
    54   27   28 1    
    55   27   29 1    
    56   27   95 1    
    57   28   96 1    
    58   28   97 1    
    59   28   98 1    
    60   29   30 am   BACKBONE|DICT|INTERRES
    61   29   99 1    
    62   30   31 2    
    63   30   32 1    
    64   32   33 1    
    65   32   34 1    
    66   32  100 1    
    67   33  101 1    
    68   33  102 1    
    69   33  103 1    
    70   34   35 am   BACKBONE|DICT|INTERRES
    71   34  104 1    
    72   35   36 2    
    73   37   38 2    
    74   37   39 am   BACKBONE|DICT|INTERRES
    75   39   40 1    
    76   39  105 1    
    77   40   41 1    
    78   40   42 1    
    79   40  106 1    
    80   41  107 1    
    81   41  108 1    
    82   41  109 1    
    83   42   43 2    
    84   42   44 am   BACKBONE|DICT|INTERRES
    85   44   45 1    
    86   44  110 1    
    87   45   46 1    
    88   45   47 1    
    89   45  111 1    
    90   46  112 1    
    91   46  113 1    
    92   46  114 1    
    93   47   48 2    
    94   47   49 am   BACKBONE|DICT|INTERRES
    95   49   50 1    
    96   49  115 1    
    97   50   51 1    
    98   50   52 1    
    99   50  116 1    
   100   51  117 1    
   101   51  118 1    
   102   51  119 1    
   103   52   53 2    
   104   52   54 am   BACKBONE|DICT|INTERRES
   105   54   55 1    
   106   54  120 1    
   107   55   56 1    
   108   55   57 1    
   109   55  121 1    
   110   56  122 1    
   111   56  123 1    
   112   56  124 1    
   113   57   58 2    
   114   57   59 am   BACKBONE|DICT|INTERRES
   115   59   60 1    
   116   59  125 1    
   117   60   61 1    
   118   60   62 1    
   119   60  126 1    
   120   61  127 1    
   121   61  128 1    
   122   61  129 1    
   123   62   63 2    
   124   62   64 am   BACKBONE|DICT|INTERRES
   125   64   65 1    
   126   64  130 1    
   127   65   66 1    
   128   65   69 1    
   129   65  131 1    
   130   66   67 am   BACKBONE|DICT|INTERRES
   131   66   68 2    
   132   67  132 1    
   133   67  133 1    
   134   69   70 1    
   135   69  134 1    
   136   69  135 1    
   137   70   71 1    
   138   71  136 1    
   139   71  137 1    
@<TRIPOS>SUBSTRUCTURE
     1 UNK         1 GROUP             0       ****    0 ROOT    
