@<TRIPOS>MOLECULE
3R136
137   139    1
SMALL
USER_CHARGES


@<TRIPOS>ATOM
      1 CA         28.4823   20.8902    4.7685 C.3       0 UNK        -0.1979 
      2 C          27.2998   20.3500    3.9673 C.2       0 UNK         0.4864 
      3 O          26.6433   19.4187    4.4306 O.2       0 UNK        -0.5359 
      4 N          26.9763   20.8772    2.7748 N.am      1 UNK        -0.4318 
      5 CA         27.5963   21.9990    2.0529 C.3       1 UNK         0.0824 
      6 C6         29.0245   21.6700    1.5192 C.3       12 UNK        -0.0944 
      7 S7         29.2692   22.2154   -0.2056 S.3       12 UNK        -0.2672 
      8 C8         31.0880   22.3353   -0.3022 C.3       12 UNK         0.0333 
      9 C9         31.5828   23.7775   -0.2845 C.ar      12 UNK        -0.0807 
     10 C10        31.2362   24.6335    0.7651 C.ar      12 UNK        -0.0894 
     11 C11        31.6760   25.9592    0.7885 C.ar      12 UNK        -0.0804 
     12 C12        32.5027   26.4175   -0.2457 C.ar      12 UNK        -0.0824 
     13 C13        32.8662   25.5755   -1.3005 C.ar      12 UNK        -0.0762 
     14 C14        32.3971   24.2576   -1.3169 C.ar      12 UNK        -0.0782 
     15 C15        33.7995   26.0742   -2.3986 C.3       12 UNK         0.0230 
     16 S16        32.9163   26.9073   -3.7607 S.3       12 UNK        -0.2608 
     17 C17        32.6236   28.5787   -3.0754 C.3       12 UNK        -0.0989 
     18 CA         31.1351   29.0159   -3.1041 C.3       5 UNK         0.0716 
     19 N          30.2206   27.9566   -2.6509 N.am      5 UNK        -0.4135 
     20 C          28.8837   27.9930   -2.7511 C.2       4 UNK         0.5031 
     21 O          28.2557   28.9283   -3.2487 O.2       4 UNK        -0.5229 
     22 CA         28.1072   26.8049   -2.1759 C.3       4 UNK         0.0329 
     23 CB         28.9070   25.4861   -2.1535 C.3       4 UNK        -0.2001 
     24 N          27.6635   27.1737   -0.8354 N.am      4 UNK        -0.4303 
     25 C          26.6827   26.5839   -0.1501 C.2       3 UNK         0.5044 
     26 O          26.0325   25.6142   -0.5504 O.2       3 UNK        -0.5152 
     27 CA         26.3620   27.1924    1.2166 C.3       3 UNK         0.0319 
     28 CB         25.2535   28.2554    1.1224 C.3       3 UNK        -0.2001 
     29 N          25.9705   26.1158    2.1109 N.am      3 UNK        -0.4354 
     30 C          26.1379   26.1262    3.4361 C.2       2 UNK         0.4964 
     31 O          26.4656   27.1266    4.0774 O.2       2 UNK        -0.5047 
     32 CA         25.9442   24.7848    4.1662 C.3       2 UNK         0.0288 
     33 CB         24.5042   24.6592    4.6884 C.3       2 UNK        -0.2113 
     34 N          26.2709   23.6075    3.3486 N.am      2 UNK        -0.4145 
     35 C          27.4821   23.3274    2.8379 C.2       1 UNK         0.5006 
     36 O          28.4709   24.0411    3.0084 O.2       1 UNK        -0.5103 
     37 C          30.9415   30.3267   -2.3069 C.2       5 UNK         0.5055 
     38 O          31.0749   31.4175   -2.8635 O.2       5 UNK        -0.5220 
     39 N          30.5987   30.1734   -1.0255 N.am      6 UNK        -0.4450 
     40 CA         30.1020   31.1776   -0.0948 C.3       6 UNK         0.0367 
     41 CB         31.2795   31.8966    0.5925 C.3       6 UNK        -0.1929 
     42 C          29.2019   30.4199    0.8969 C.2       6 UNK         0.5070 
     43 O          28.9209   29.2384    0.6712 O.2       6 UNK        -0.5237 
     44 N          28.7708   31.0819    1.9762 N.am      7 UNK        -0.4739 
     45 CA         28.1325   30.4260    3.1224 C.3       7 UNK         0.0276 
     46 CB         27.3589   31.4741    3.9371 C.3       7 UNK        -0.1927 
     47 C          29.2011   29.7544    3.9990 C.2       7 UNK         0.5013 
     48 O          30.2902   30.3147    4.1424 O.2       7 UNK        -0.5193 
     49 N          28.8743   28.6093    4.6158 N.am      8 UNK        -0.4253 
     50 CA         29.7962   27.7959    5.4264 C.3       8 UNK         0.0242 
     51 CB         29.0853   26.5190    5.9001 C.3       8 UNK        -0.2000 
     52 C          30.4711   28.5140    6.6109 C.2       8 UNK         0.4948 
     53 O          31.5349   28.0739    7.0457 O.2       8 UNK        -0.5275 
     54 N          29.8728   29.6127    7.0907 N.am      9 UNK        -0.4246 
     55 CA         30.4662   30.5179    8.0773 C.3       9 UNK         0.0261 
     56 CB         29.3773   31.4634    8.6104 C.3       9 UNK        -0.1959 
     57 C          31.6590   31.3286    7.5293 C.2       9 UNK         0.5033 
     58 O          32.5188   31.7243    8.3181 O.2       9 UNK        -0.5390 
     59 N          31.6895   31.5747    6.2115 N.am      10 UNK        -0.4215 
     60 CA         32.7548   32.3004    5.5180 C.3       10 UNK         0.0240 
     61 CB         32.1341   33.1917    4.4288 C.3       10 UNK        -0.1982 
     62 C          33.7933   31.3498    4.9011 C.2       10 UNK         0.4970 
     63 O          34.9615   31.7302    4.8112 O.2       10 UNK        -0.4916 
     64 N          33.3623   30.1529    4.4770 N.am      11 UNK        -0.4279 
     65 CA         34.2151   29.1054    3.8885 C.3       11 UNK         0.1003 
     66 C          35.3364   28.6085    4.8439 C.2       11 UNK         0.5709 
     67 N          36.4816   28.2161    4.3014 N.am      11 UNK        -0.7358 
     68 O          35.1674   28.5364    6.0597 O.2       11 UNK        -0.4999 
     69 C69        33.3829   27.9041    3.3681 C.3       12 UNK        -0.0954 
     70 S70        32.1285   28.4083    2.1504 S.3       12 UNK        -0.2268 
     71 C71        31.1896   26.8607    1.9224 C.3       12 UNK         0.0203 
     72 H72        28.7195   20.2165    5.5916 H         1 UNK         0.0888 
     73 H73        29.3782   20.9787    4.1580 H         1 UNK         0.0888 
     74 H74        28.2485   21.8633    5.1987 H         1 UNK         0.0888 
     75 H75        26.1884   20.4658    2.2933 H         1 UNK         0.3017 
     76 H76        26.9465   22.1379    1.1870 H         1 UNK         0.0873 
     77 H77        29.8100   22.0807    2.1548 H         1 UNK         0.0745 
     78 H78        29.1889   20.5913    1.5207 H         1 UNK         0.0745 
     79 H79        31.4068   21.8369   -1.2188 H         1 UNK         0.0705 
     80 H80        31.5512   21.7838    0.5169 H         1 UNK         0.0705 
     81 H81        30.5975   24.2717    1.5582 H         1 UNK         0.1334 
     82 H82        32.8708   27.4312   -0.2347 H         1 UNK         0.1417 
     83 H83        32.6767   23.6024   -2.1310 H         1 UNK         0.1562 
     84 H84        34.3545   25.2325   -2.8158 H         1 UNK         0.0748 
     85 H85        34.5524   26.7445   -1.9810 H         1 UNK         0.0748 
     86 H86        33.2202   29.2830   -3.6584 H         1 UNK         0.0940 
     87 H87        33.0278   28.6347   -2.0652 H         1 UNK         0.0940 
     88 H88        30.8735   29.2309   -4.1425 H         1 UNK         0.0703 
     89 H89        30.6568   27.1331   -2.2608 H         1 UNK         0.3081 
     90 H90        27.2290   26.6626   -2.8092 H         1 UNK         0.0719 
     91 H91        29.3473   25.2677   -3.1273 H         1 UNK         0.0809 
     92 H92        28.2668   24.6419   -1.8976 H         1 UNK         0.0809 
     93 H93        29.7102   25.5169   -1.4208 H         1 UNK         0.0809 
     94 H94        28.1274   27.9774   -0.4117 H         1 UNK         0.2990 
     95 H95        27.2714   27.6414    1.6142 H         1 UNK         0.0690 
     96 H96        25.0360   28.6918    2.0974 H         1 UNK         0.0788 
     97 H97        24.3274   27.8355    0.7282 H         1 UNK         0.0788 
     98 H98        25.5535   29.0707    0.4627 H         1 UNK         0.0788 
     99 H99        25.7107   25.2568    1.6431 H         1 UNK         0.2993 
    100 H100       26.6186   24.7850    5.0248 H         1 UNK         0.0949 
    101 H101       23.7800   24.6247    3.8735 H         1 UNK         0.0767 
    102 H102       24.3770   23.7598    5.2914 H         1 UNK         0.0767 
    103 H103       24.2436   25.5098    5.3203 H         1 UNK         0.0767 
    104 H104       25.5195   22.9527    3.1843 H         1 UNK         0.3013 
    105 H105       30.4518   29.2332   -0.6777 H         1 UNK         0.3121 
    106 H106       29.4863   31.8992   -0.6352 H         1 UNK         0.0774 
    107 H107       31.8451   31.2229    1.2368 H         1 UNK         0.0815 
    108 H108       30.9312   32.7244    1.2101 H         1 UNK         0.0815 
    109 H109       31.9705   32.3148   -0.1394 H         1 UNK         0.0815 
    110 H110       29.0718   32.0350    2.1153 H         1 UNK         0.2987 
    111 H111       27.4299   29.6700    2.7680 H         1 UNK         0.0949 
    112 H112       28.0191   32.2451    4.3371 H         1 UNK         0.0806 
    113 H113       26.5989   31.9652    3.3292 H         1 UNK         0.0806 
    114 H114       26.8465   31.0115    4.7817 H         1 UNK         0.0806 
    115 H115       27.9534   28.2053    4.4527 H         1 UNK         0.3010 
    116 H116       30.6063   27.4940    4.7642 H         1 UNK         0.0829 
    117 H117       28.8139   25.8891    5.0535 H         1 UNK         0.0813 
    118 H118       29.7312   25.9212    6.5449 H         1 UNK         0.0813 
    119 H119       28.1782   26.7455    6.4614 H         1 UNK         0.0813 
    120 H120       28.9919   29.8906    6.6836 H         1 UNK         0.3038 
    121 H121       30.8344   29.9159    8.9109 H         1 UNK         0.0769 
    122 H122       28.9576   32.0850    7.8184 H         1 UNK         0.0811 
    123 H123       29.7816   32.1337    9.3704 H         1 UNK         0.0811 
    124 H124       28.5604   30.9087    9.0725 H         1 UNK         0.0811 
    125 H125       30.9750   31.1655    5.6125 H         1 UNK         0.3204 
    126 H126       33.2779   32.9500    6.2231 H         1 UNK         0.0748 
    127 H127       31.4259   33.9024    4.8549 H         1 UNK         0.0771 
    128 H128       32.9022   33.7688    3.9122 H         1 UNK         0.0771 
    129 H129       31.6072   32.6044    3.6762 H         1 UNK         0.0771 
    130 H130       32.3732   29.9449    4.5242 H         1 UNK         0.2980 
    131 H131       34.7058   29.5644    3.0279 H         1 UNK         0.0545 
    132 H132       36.6289   28.2576    3.3050 H         1 UNK         0.3459 
    133 H133       37.2162   27.8765    4.9023 H         1 UNK         0.3459 
    134 H134       34.0284   27.1637    2.8919 H         1 UNK         0.0616 
    135 H135       32.8905   27.3978    4.1997 H         1 UNK         0.0616 
    136 H136       31.1862   26.2991    2.8571 H         1 UNK         0.0634 
    137 H137       30.1496   27.1209    1.7237 H         1 UNK         0.0634 
@<TRIPOS>BOND
     1    1    2 1    
     2    1   72 1    
     3    1   73 1    
     4    1   74 1    
     5    2    3 2    
     6    2    4 am   BACKBONE|DICT|INTERRES
     7    4    5 1    
     8    4   75 1    
     9    5    6 1    
    10    5   35 1    
    11    5   76 1    
    12    6    7 1    
    13    6   77 1    
    14    6   78 1    
    15    7    8 1    
    16    8    9 1    
    17    8   79 1    
    18    8   80 1    
    19    9   10 ar   
    20    9   14 ar   
    21   10   11 ar   
    22   10   81 1    
    23   11   12 ar   
    24   11   71 1    
    25   12   13 ar   
    26   12   82 1    
    27   13   14 ar   
    28   13   15 1    
    29   14   83 1    
    30   15   16 1    
    31   15   84 1    
    32   15   85 1    
    33   16   17 1    
    34   17   18 1    
    35   17   86 1    
    36   17   87 1    
    37   18   19 1    
    38   18   37 1    
    39   18   88 1    
    40   19   20 am   BACKBONE|DICT|INTERRES
    41   19   89 1    
    42   20   21 2    
    43   20   22 1    
    44   22   23 1    
    45   22   24 1    
    46   22   90 1    
    47   23   91 1    
    48   23   92 1    
    49   23   93 1    
    50   24   25 am   BACKBONE|DICT|INTERRES
    51   24   94 1    
    52   25   26 2    
    53   25   27 1    
    54   27   28 1    
    55   27   29 1    
    56   27   95 1    
    57   28   96 1    
    58   28   97 1    
    59   28   98 1    
    60   29   30 am   BACKBONE|DICT|INTERRES
    61   29   99 1    
    62   30   31 2    
    63   30   32 1    
    64   32   33 1    
    65   32   34 1    
    66   32  100 1    
    67   33  101 1    
    68   33  102 1    
    69   33  103 1    
    70   34   35 am   BACKBONE|DICT|INTERRES
    71   34  104 1    
    72   35   36 2    
    73   37   38 2    
    74   37   39 am   BACKBONE|DICT|INTERRES
    75   39   40 1    
    76   39  105 1    
    77   40   41 1    
    78   40   42 1    
    79   40  106 1    
    80   41  107 1    
    81   41  108 1    
    82   41  109 1    
    83   42   43 2    
    84   42   44 am   BACKBONE|DICT|INTERRES
    85   44   45 1    
    86   44  110 1    
    87   45   46 1    
    88   45   47 1    
    89   45  111 1    
    90   46  112 1    
    91   46  113 1    
    92   46  114 1    
    93   47   48 2    
    94   47   49 am   BACKBONE|DICT|INTERRES
    95   49   50 1    
    96   49  115 1    
    97   50   51 1    
    98   50   52 1    
    99   50  116 1    
   100   51  117 1    
   101   51  118 1    
   102   51  119 1    
   103   52   53 2    
   104   52   54 am   BACKBONE|DICT|INTERRES
   105   54   55 1    
   106   54  120 1    
   107   55   56 1    
   108   55   57 1    
   109   55  121 1    
   110   56  122 1    
   111   56  123 1    
   112   56  124 1    
   113   57   58 2    
   114   57   59 am   BACKBONE|DICT|INTERRES
   115   59   60 1    
   116   59  125 1    
   117   60   61 1    
   118   60   62 1    
   119   60  126 1    
   120   61  127 1    
   121   61  128 1    
   122   61  129 1    
   123   62   63 2    
   124   62   64 am   BACKBONE|DICT|INTERRES
   125   64   65 1    
   126   64  130 1    
   127   65   66 1    
   128   65   69 1    
   129   65  131 1    
   130   66   67 am   BACKBONE|DICT|INTERRES
   131   66   68 2    
   132   67  132 1    
   133   67  133 1    
   134   69   70 1    
   135   69  134 1    
   136   69  135 1    
   137   70   71 1    
   138   71  136 1    
   139   71  137 1    
@<TRIPOS>SUBSTRUCTURE
     1 UNK         1 GROUP             0       ****    0 ROOT    
