@<TRIPOS>MOLECULE
3R136
137   139    1
SMALL
USER_CHARGES


@<TRIPOS>ATOM
      1 CA         25.3543   24.5256   -1.2867 C.3       0 UNK        -0.1979 
      2 C          26.8655   24.3626   -1.3490 C.2       0 UNK         0.4864 
      3 O          27.5364   25.0939   -2.0801 O.2       0 UNK        -0.5359 
      4 N          27.3935   23.3861   -0.5984 N.am      1 UNK        -0.4318 
      5 CA         28.8059   22.9941   -0.5629 C.3       1 UNK         0.0824 
      6 C6         29.0084   21.7625    0.3543 C.3       12 UNK        -0.0944 
      7 S7         30.7234   21.1279    0.3990 S.3       12 UNK        -0.2672 
      8 C8         30.9619   20.7807    2.1722 C.3       12 UNK         0.0333 
      9 C9         31.0650   22.0440    3.0189 C.ar      12 UNK        -0.0807 
     10 C10        32.2962   22.6866    3.1847 C.ar      12 UNK        -0.0894 
     11 C11        32.4069   23.8004    4.0233 C.ar      12 UNK        -0.0804 
     12 C12        31.2661   24.2917    4.6649 C.ar      12 UNK        -0.0824 
     13 C13        30.0213   23.6766    4.4942 C.ar      12 UNK        -0.0762 
     14 C14        29.9389   22.5357    3.6867 C.ar      12 UNK        -0.0782 
     15 C15        28.8177   24.2479    5.2480 C.3       12 UNK         0.0230 
     16 S16        27.1659   23.6474    4.7330 S.3       12 UNK        -0.2608 
     17 C17        26.9343   24.3810    3.0765 C.3       12 UNK        -0.0989 
     18 CA         26.7911   25.9283    3.1203 C.3       5 UNK         0.0716 
     19 N          28.0661   26.5904    2.8326 N.am      5 UNK        -0.4135 
     20 C          28.4496   27.7428    3.3973 C.2       4 UNK         0.5031 
     21 O          27.7995   28.3404    4.2540 O.2       4 UNK        -0.5229 
     22 CA         29.7675   28.3523    2.9030 C.3       4 UNK         0.0329 
     23 CB         30.9572   27.7315    3.6464 C.3       4 UNK        -0.2001 
     24 N          29.9665   28.2272    1.4578 N.am      4 UNK        -0.4303 
     25 C          29.1600   28.7133    0.5054 C.2       3 UNK         0.5044 
     26 O          28.1427   29.3576    0.7594 O.2       3 UNK        -0.5152 
     27 CA         29.4751   28.3774   -0.9690 C.3       3 UNK         0.0319 
     28 CB         30.1408   29.5571   -1.7022 C.3       3 UNK        -0.2001 
     29 N          30.2065   27.1192   -1.1771 N.am      3 UNK        -0.4354 
     30 C          31.4462   26.7937   -0.7775 C.2       2 UNK         0.4964 
     31 O          32.2205   27.5949   -0.2550 O.2       2 UNK        -0.5047 
     32 CA         31.8746   25.3190   -0.9191 C.3       2 UNK         0.0288 
     33 CB         32.8049   24.8779    0.2286 C.3       2 UNK        -0.2113 
     34 N          30.7677   24.3615   -1.0398 N.am      2 UNK        -0.4145 
     35 C          29.7365   24.1727   -0.1988 C.2       1 UNK         0.5006 
     36 O          29.4959   24.8708    0.7923 O.2       1 UNK        -0.5103 
     37 C          25.6486   26.4561    2.2204 C.2       5 UNK         0.5055 
     38 O          24.4984   26.0828    2.4555 O.2       5 UNK        -0.5220 
     39 N          25.9496   27.3087    1.2265 N.am      6 UNK        -0.4450 
     40 CA         24.9474   27.9936    0.4037 C.3       6 UNK         0.0367 
     41 CB         25.4927   28.2471   -1.0133 C.3       6 UNK        -0.1929 
     42 C          24.5190   29.3149    1.0585 C.2       6 UNK         0.5070 
     43 O          23.3207   29.5818    1.1534 O.2       6 UNK        -0.5237 
     44 N          25.4999   30.1111    1.5018 N.am      7 UNK        -0.4739 
     45 CA         25.2972   31.3982    2.1603 C.3       7 UNK         0.0276 
     46 CB         25.1684   32.5240    1.1149 C.3       7 UNK        -0.1927 
     47 C          26.4266   31.6520    3.1641 C.2       7 UNK         0.5013 
     48 O          26.1856   31.5845    4.3699 O.2       7 UNK        -0.5193 
     49 N          27.6306   31.9369    2.6546 N.am      8 UNK        -0.4253 
     50 CA         28.8400   32.2172    3.4239 C.3       8 UNK         0.0242 
     51 CB         28.7507   33.5999    4.1004 C.3       8 UNK        -0.2000 
     52 C          30.0427   32.1656    2.4758 C.2       8 UNK         0.4948 
     53 O          29.9037   32.5178    1.3017 O.2       8 UNK        -0.5275 
     54 N          31.1967   31.7557    3.0110 N.am      9 UNK        -0.4246 
     55 CA         32.4965   31.6855    2.3481 C.3       9 UNK         0.0261 
     56 CB         32.5175   30.5926    1.2626 C.3       9 UNK        -0.1959 
     57 C          33.5591   31.4189    3.4216 C.2       9 UNK         0.5033 
     58 O          33.2097   31.1517    4.5762 O.2       9 UNK        -0.5390 
     59 N          34.8344   31.4907    3.0185 N.am      10 UNK        -0.4215 
     60 CA         36.0180   31.4178    3.8833 C.3       10 UNK         0.0240 
     61 CB         37.2823   31.5755    3.0222 C.3       10 UNK        -0.1982 
     62 C          36.1303   30.1628    4.7689 C.2       10 UNK         0.4970 
     63 O          36.7015   30.2628    5.8560 O.2       10 UNK        -0.4916 
     64 N          35.5981   29.0206    4.3101 N.am      11 UNK        -0.4279 
     65 CA         35.5540   27.7742    5.0923 C.3       11 UNK         0.1003 
     66 C          34.4382   27.7278    6.1809 C.2       11 UNK         0.5709 
     67 N          33.5301   28.6957    6.2548 N.am      11 UNK        -0.7358 
     68 O          34.4123   26.8041    6.9906 O.2       11 UNK        -0.4999 
     69 C69        35.6178   26.5113    4.1864 C.3       12 UNK        -0.0954 
     70 S70        34.0399   25.9926    3.4234 S.3       12 UNK        -0.2268 
     71 C71        33.7672   24.4236    4.3075 C.3       12 UNK         0.0203 
     72 H72        25.0670   25.1036   -0.4108 H         1 UNK         0.0888 
     73 H73        24.9871   25.0417   -2.1735 H         1 UNK         0.0888 
     74 H74        24.8573   23.5571   -1.2351 H         1 UNK         0.0888 
     75 H75        26.7775   22.8343   -0.0196 H         1 UNK         0.3017 
     76 H76        29.0492   22.6796   -1.5801 H         1 UNK         0.0873 
     77 H77        28.6679   21.9950    1.3609 H         1 UNK         0.0745 
     78 H78        28.3724   20.9441    0.0132 H         1 UNK         0.0745 
     79 H79        31.8726   20.1915    2.2899 H         1 UNK         0.0705 
     80 H80        30.1480   20.1467    2.5275 H         1 UNK         0.0705 
     81 H81        33.1743   22.2968    2.6882 H         1 UNK         0.1334 
     82 H82        31.3561   25.1489    5.3186 H         1 UNK         0.1417 
     83 H83        28.9995   22.0134    3.5836 H         1 UNK         0.1562 
     84 H84        28.8309   25.3363    5.1921 H         1 UNK         0.0748 
     85 H85        28.9415   24.0026    6.3035 H         1 UNK         0.0748 
     86 H86        26.0435   23.9061    2.6604 H         1 UNK         0.0940 
     87 H87        27.7509   24.0674    2.4286 H         1 UNK         0.0940 
     88 H88        26.4779   26.2031    4.1300 H         1 UNK         0.0703 
     89 H89        28.6687   26.1395    2.1481 H         1 UNK         0.3081 
     90 H90        29.7345   29.4124    3.1421 H         1 UNK         0.0719 
     91 H91        30.7880   27.7114    4.7239 H         1 UNK         0.0809 
     92 H92        31.8749   28.2942    3.4822 H         1 UNK         0.0809 
     93 H93        31.1306   26.7068    3.3191 H         1 UNK         0.0809 
     94 H94        30.8041   27.7472    1.1474 H         1 UNK         0.2990 
     95 H95        28.5061   28.2172   -1.4428 H         1 UNK         0.0690 
     96 H96        30.1247   29.4043   -2.7812 H         1 UNK         0.0788 
     97 H97        31.1793   29.6974   -1.4074 H         1 UNK         0.0788 
     98 H98        29.6153   30.4917   -1.4999 H         1 UNK         0.0788 
     99 H99        29.6428   26.3682   -1.5564 H         1 UNK         0.2993 
    100 H100       32.4403   25.2602   -1.8500 H         1 UNK         0.0949 
    101 H101       33.1264   23.8435    0.1072 H         1 UNK         0.0767 
    102 H102       33.7046   25.4928    0.2733 H         1 UNK         0.0767 
    103 H103       32.3048   24.9582    1.1945 H         1 UNK         0.0767 
    104 H104       30.8342   23.7420   -1.8356 H         1 UNK         0.3013 
    105 H105       26.9039   27.6293    1.1318 H         1 UNK         0.3121 
    106 H106       24.0632   27.3595    0.3069 H         1 UNK         0.0774 
    107 H107       24.6943   28.5888   -1.6731 H         1 UNK         0.0815 
    108 H108       26.2644   29.0161   -1.0286 H         1 UNK         0.0815 
    109 H109       25.9129   27.3455   -1.4554 H         1 UNK         0.0815 
    110 H110       26.4682   29.8221    1.3699 H         1 UNK         0.2987 
    111 H111       24.3694   31.3634    2.7364 H         1 UNK         0.0949 
    112 H112       24.2663   32.4007    0.5155 H         1 UNK         0.0806 
    113 H113       25.1039   33.5004    1.5970 H         1 UNK         0.0806 
    114 H114       26.0176   32.5487    0.4312 H         1 UNK         0.0806 
    115 H115       27.7705   31.9344    1.6510 H         1 UNK         0.3010 
    116 H116       28.9525   31.4446    4.1876 H         1 UNK         0.0829 
    117 H117       27.9359   33.6438    4.8229 H         1 UNK         0.0813 
    118 H118       29.6693   33.8318    4.6408 H         1 UNK         0.0813 
    119 H119       28.5925   34.3937    3.3692 H         1 UNK         0.0813 
    120 H120       31.2512   31.5230    3.9969 H         1 UNK         0.3038 
    121 H121       32.7010   32.6572    1.8941 H         1 UNK         0.0769 
    122 H122       32.4162   29.5955    1.6867 H         1 UNK         0.0811 
    123 H123       33.4499   30.6078    0.6981 H         1 UNK         0.0811 
    124 H124       31.7134   30.7316    0.5434 H         1 UNK         0.0811 
    125 H125       35.0125   31.6977    2.0460 H         1 UNK         0.3204 
    126 H126       35.9636   32.2732    4.5600 H         1 UNK         0.0748 
    127 H127       38.1820   31.5538    3.6392 H         1 UNK         0.0771 
    128 H128       37.3723   30.7744    2.2873 H         1 UNK         0.0771 
    129 H129       37.2846   32.5256    2.4873 H         1 UNK         0.0771 
    130 H130       35.1267   29.0128    3.4183 H         1 UNK         0.2980 
    131 H131       36.4812   27.7457    5.6681 H         1 UNK         0.0545 
    132 H132       33.5442   29.4837    5.6161 H         1 UNK         0.3459 
    133 H133       32.8282   28.6509    6.9750 H         1 UNK         0.3459 
    134 H134       36.3431   26.6645    3.3859 H         1 UNK         0.0616 
    135 H135       36.0158   25.6783    4.7683 H         1 UNK         0.0616 
    136 H136       33.8575   24.5967    5.3808 H         1 UNK         0.0634 
    137 H137       34.5650   23.7278    4.0432 H         1 UNK         0.0634 
@<TRIPOS>BOND
     1    1    2 1    
     2    1   72 1    
     3    1   73 1    
     4    1   74 1    
     5    2    3 2    
     6    2    4 am   BACKBONE|DICT|INTERRES
     7    4    5 1    
     8    4   75 1    
     9    5    6 1    
    10    5   35 1    
    11    5   76 1    
    12    6    7 1    
    13    6   77 1    
    14    6   78 1    
    15    7    8 1    
    16    8    9 1    
    17    8   79 1    
    18    8   80 1    
    19    9   10 ar   
    20    9   14 ar   
    21   10   11 ar   
    22   10   81 1    
    23   11   12 ar   
    24   11   71 1    
    25   12   13 ar   
    26   12   82 1    
    27   13   14 ar   
    28   13   15 1    
    29   14   83 1    
    30   15   16 1    
    31   15   84 1    
    32   15   85 1    
    33   16   17 1    
    34   17   18 1    
    35   17   86 1    
    36   17   87 1    
    37   18   19 1    
    38   18   37 1    
    39   18   88 1    
    40   19   20 am   BACKBONE|DICT|INTERRES
    41   19   89 1    
    42   20   21 2    
    43   20   22 1    
    44   22   23 1    
    45   22   24 1    
    46   22   90 1    
    47   23   91 1    
    48   23   92 1    
    49   23   93 1    
    50   24   25 am   BACKBONE|DICT|INTERRES
    51   24   94 1    
    52   25   26 2    
    53   25   27 1    
    54   27   28 1    
    55   27   29 1    
    56   27   95 1    
    57   28   96 1    
    58   28   97 1    
    59   28   98 1    
    60   29   30 am   BACKBONE|DICT|INTERRES
    61   29   99 1    
    62   30   31 2    
    63   30   32 1    
    64   32   33 1    
    65   32   34 1    
    66   32  100 1    
    67   33  101 1    
    68   33  102 1    
    69   33  103 1    
    70   34   35 am   BACKBONE|DICT|INTERRES
    71   34  104 1    
    72   35   36 2    
    73   37   38 2    
    74   37   39 am   BACKBONE|DICT|INTERRES
    75   39   40 1    
    76   39  105 1    
    77   40   41 1    
    78   40   42 1    
    79   40  106 1    
    80   41  107 1    
    81   41  108 1    
    82   41  109 1    
    83   42   43 2    
    84   42   44 am   BACKBONE|DICT|INTERRES
    85   44   45 1    
    86   44  110 1    
    87   45   46 1    
    88   45   47 1    
    89   45  111 1    
    90   46  112 1    
    91   46  113 1    
    92   46  114 1    
    93   47   48 2    
    94   47   49 am   BACKBONE|DICT|INTERRES
    95   49   50 1    
    96   49  115 1    
    97   50   51 1    
    98   50   52 1    
    99   50  116 1    
   100   51  117 1    
   101   51  118 1    
   102   51  119 1    
   103   52   53 2    
   104   52   54 am   BACKBONE|DICT|INTERRES
   105   54   55 1    
   106   54  120 1    
   107   55   56 1    
   108   55   57 1    
   109   55  121 1    
   110   56  122 1    
   111   56  123 1    
   112   56  124 1    
   113   57   58 2    
   114   57   59 am   BACKBONE|DICT|INTERRES
   115   59   60 1    
   116   59  125 1    
   117   60   61 1    
   118   60   62 1    
   119   60  126 1    
   120   61  127 1    
   121   61  128 1    
   122   61  129 1    
   123   62   63 2    
   124   62   64 am   BACKBONE|DICT|INTERRES
   125   64   65 1    
   126   64  130 1    
   127   65   66 1    
   128   65   69 1    
   129   65  131 1    
   130   66   67 am   BACKBONE|DICT|INTERRES
   131   66   68 2    
   132   67  132 1    
   133   67  133 1    
   134   69   70 1    
   135   69  134 1    
   136   69  135 1    
   137   70   71 1    
   138   71  136 1    
   139   71  137 1    
@<TRIPOS>SUBSTRUCTURE
     1 UNK         1 GROUP             0       ****    0 ROOT    
