@<TRIPOS>MOLECULE
3R136
137   139    1
SMALL
USER_CHARGES


@<TRIPOS>ATOM
      1 CA         30.9635   24.9533   -1.3595 C.3       0 UNK        -0.1979 
      2 C          30.0505   24.4960   -0.2329 C.2       0 UNK         0.4864 
      3 O          29.3167   25.3091    0.3329 O.2       0 UNK        -0.5359 
      4 N          30.0903   23.1968    0.0894 N.am      1 UNK        -0.4318 
      5 CA         29.4044   22.5608    1.2217 C.3       1 UNK         0.0824 
      6 C6         29.7190   21.0405    1.3312 C.3       12 UNK        -0.0944 
      7 S7         31.4251   20.5487    0.9048 S.3       12 UNK        -0.2672 
      8 C8         32.2775   20.6709    2.5048 C.3       12 UNK         0.0333 
      9 C9         32.7224   22.0965    2.7899 C.ar      12 UNK        -0.0807 
     10 C10        33.7499   22.6673    2.0334 C.ar      12 UNK        -0.0894 
     11 C11        34.1975   23.9622    2.3050 C.ar      12 UNK        -0.0804 
     12 C12        33.6183   24.6826    3.3516 C.ar      12 UNK        -0.0824 
     13 C13        32.5697   24.1339    4.0997 C.ar      12 UNK        -0.0762 
     14 C14        32.1296   22.8370    3.8162 C.ar      12 UNK        -0.0782 
     15 C15        31.9248   24.9207    5.2344 C.3       12 UNK         0.0230 
     16 S16        31.5512   26.6451    4.7873 S.3       12 UNK        -0.2608 
     17 C17        30.2765   26.4355    3.4992 C.3       12 UNK        -0.0989 
     18 CA         29.6951   27.8041    3.0661 C.3       5 UNK         0.0716 
     19 N          29.1931   27.7823    1.6885 N.am      5 UNK        -0.4135 
     20 C          28.8879   28.8805    0.9825 C.2       4 UNK         0.5031 
     21 O          28.9925   30.0269    1.4154 O.2       4 UNK        -0.5229 
     22 CA         28.2913   28.6725   -0.4184 C.3       4 UNK         0.0329 
     23 CB         29.3970   28.4487   -1.4595 C.3       4 UNK        -0.2001 
     24 N          27.2987   27.5931   -0.4882 N.am      4 UNK        -0.4303 
     25 C          26.1796   27.5571    0.2504 C.2       3 UNK         0.5044 
     26 O          25.9228   28.3703    1.1375 O.2       3 UNK        -0.5152 
     27 CA         25.1700   26.4481   -0.0490 C.3       3 UNK         0.0319 
     28 CB         24.3857   26.7702   -1.3375 C.3       3 UNK        -0.2001 
     29 N          25.7933   25.1238   -0.1290 N.am      3 UNK        -0.4354 
     30 C          25.1006   23.9814   -0.0141 C.2       2 UNK         0.4964 
     31 O          23.8923   23.9390    0.2236 O.2       2 UNK        -0.5047 
     32 CA         25.8442   22.6534   -0.2277 C.3       2 UNK         0.0288 
     33 CB         25.5909   22.1279   -1.6511 C.3       2 UNK        -0.2113 
     34 N          27.2873   22.7128    0.0010 N.am      2 UNK        -0.4145 
     35 C          27.8721   22.7470    1.2067 C.2       1 UNK         0.5006 
     36 O          27.2585   22.8671    2.2681 O.2       1 UNK        -0.5103 
     37 C          28.6686   28.3546    4.0871 C.2       5 UNK         0.5055 
     38 O          29.0713   28.8879    5.1215 O.2       5 UNK        -0.5220 
     39 N          27.3640   28.2433    3.7911 N.am      6 UNK        -0.4450 
     40 CA         26.3024   28.8464    4.6015 C.3       6 UNK         0.0367 
     41 CB         24.9729   28.1120    4.3626 C.3       6 UNK        -0.1929 
     42 C          26.1589   30.3532    4.3247 C.2       6 UNK         0.5070 
     43 O          25.7943   31.0973    5.2355 O.2       6 UNK        -0.5237 
     44 N          26.4505   30.7802    3.0872 N.am      7 UNK        -0.4739 
     45 CA         26.4564   32.1850    2.6754 C.3       7 UNK         0.0276 
     46 CB         26.3828   32.2808    1.1426 C.3       7 UNK        -0.1927 
     47 C          27.6738   32.9498    3.2232 C.2       7 UNK         0.5013 
     48 O          27.5070   34.0722    3.7030 O.2       7 UNK        -0.5193 
     49 N          28.8626   32.3356    3.1639 N.am      8 UNK        -0.4253 
     50 CA         30.1063   32.8738    3.7099 C.3       8 UNK         0.0242 
     51 CB         30.8224   33.7285    2.6489 C.3       8 UNK        -0.2000 
     52 C          30.9854   31.7065    4.1636 C.2       8 UNK         0.4948 
     53 O          31.3054   30.8458    3.3453 O.2       8 UNK        -0.5275 
     54 N          31.3920   31.7113    5.4409 N.am      9 UNK        -0.4246 
     55 CA         32.1185   30.6228    6.1130 C.3       9 UNK         0.0261 
     56 CB         32.3108   30.9887    7.5940 C.3       9 UNK        -0.1959 
     57 C          33.4662   30.2196    5.4829 C.2       9 UNK         0.5033 
     58 O          33.9344   29.1072    5.7261 O.2       9 UNK        -0.5390 
     59 N          34.0612   31.0976    4.6669 N.am      10 UNK        -0.4215 
     60 CA         35.2761   30.8447    3.8900 C.3       10 UNK         0.0240 
     61 CB         35.9891   32.1877    3.6399 C.3       10 UNK        -0.1982 
     62 C          34.9855   30.0714    2.5840 C.2       10 UNK         0.4970 
     63 O          35.4904   30.4578    1.5281 O.2       10 UNK        -0.4916 
     64 N          34.1891   28.9951    2.6732 N.am      11 UNK        -0.4279 
     65 CA         33.7952   28.1208    1.5529 C.3       11 UNK         0.1003 
     66 C          32.9082   28.8216    0.4743 C.2       11 UNK         0.5709 
     67 N          32.1640   29.8664    0.8127 N.am      11 UNK        -0.7358 
     68 O          32.8770   28.4159   -0.6846 O.2       11 UNK        -0.4999 
     69 C69        35.0277   27.3695    0.9626 C.3       12 UNK        -0.0954 
     70 S70        34.6379   25.7387    0.2361 S.3       12 UNK        -0.2268 
     71 C71        35.3079   24.5765    1.4687 C.3       12 UNK         0.0203 
     72 H72        30.3737   25.3318   -2.1936 H         1 UNK         0.0888 
     73 H73        31.6181   25.7511   -1.0085 H         1 UNK         0.0888 
     74 H74        31.5928   24.1434   -1.7278 H         1 UNK         0.0888 
     75 H75        30.7252   22.5854   -0.4055 H         1 UNK         0.3017 
     76 H76        29.7777   23.0539    2.1211 H         1 UNK         0.0873 
     77 H77        29.4796   20.6797    2.3333 H         1 UNK         0.0745 
     78 H78        29.0788   20.4680    0.6561 H         1 UNK         0.0745 
     79 H79        33.1570   20.0258    2.4808 H         1 UNK         0.0705 
     80 H80        31.6399   20.2841    3.3012 H         1 UNK         0.0705 
     81 H81        34.2001   22.0985    1.2310 H         1 UNK         0.1334 
     82 H82        33.9752   25.6789    3.5734 H         1 UNK         0.1417 
     83 H83        31.3326   22.3986    4.4016 H         1 UNK         0.1562 
     84 H84        32.6045   24.9211    6.0873 H         1 UNK         0.0748 
     85 H85        31.0048   24.4402    5.5711 H         1 UNK         0.0748 
     86 H86        29.4951   25.7552    3.8437 H         1 UNK         0.0940 
     87 H87        30.7561   25.9432    2.6512 H         1 UNK         0.0940 
     88 H88        30.5245   28.5104    3.0507 H         1 UNK         0.0703 
     89 H89        29.1082   26.8720    1.2366 H         1 UNK         0.3081 
     90 H90        27.7699   29.5945   -0.6846 H         1 UNK         0.0719 
     91 H91        29.9961   27.5708   -1.2259 H         1 UNK         0.0809 
     92 H92        28.9880   28.3258   -2.4623 H         1 UNK         0.0809 
     93 H93        30.0776   29.3003   -1.4903 H         1 UNK         0.0809 
     94 H94        27.4429   26.8934   -1.2004 H         1 UNK         0.2990 
     95 H95        24.4648   26.4427    0.7855 H         1 UNK         0.0690 
     96 H96        25.0201   26.7114   -2.2226 H         1 UNK         0.0788 
     97 H97        23.9679   27.7774   -1.3001 H         1 UNK         0.0788 
     98 H98        23.5502   26.0850   -1.4808 H         1 UNK         0.0788 
     99 H99        26.7981   25.0827   -0.2392 H         1 UNK         0.2993 
    100 H100       25.4207   21.9348    0.4781 H         1 UNK         0.0949 
    101 H101       26.0063   22.7948   -2.4080 H         1 UNK         0.0767 
    102 H102       26.0299   21.1402   -1.7943 H         1 UNK         0.0767 
    103 H103       24.5220   22.0356   -1.8500 H         1 UNK         0.0767 
    104 H104       27.8815   22.6226   -0.8105 H         1 UNK         0.3013 
    105 H105       27.0885   27.8611    2.8950 H         1 UNK         0.3121 
    106 H106       26.5576   28.7273    5.6570 H         1 UNK         0.0774 
    107 H107       24.1993   28.4905    5.0318 H         1 UNK         0.0815 
    108 H108       24.6072   28.2434    3.3446 H         1 UNK         0.0815 
    109 H109       25.0688   27.0427    4.5512 H         1 UNK         0.0815 
    110 H110       26.7255   30.0976    2.3913 H         1 UNK         0.2987 
    111 H111       25.5598   32.6591    3.0814 H         1 UNK         0.0949 
    112 H112       27.2629   31.8529    0.6630 H         1 UNK         0.0806 
    113 H113       25.5056   31.7629    0.7544 H         1 UNK         0.0806 
    114 H114       26.3143   33.3213    0.8228 H         1 UNK         0.0806 
    115 H115       28.9354   31.4209    2.7183 H         1 UNK         0.3010 
    116 H116       29.8824   33.5009    4.5757 H         1 UNK         0.0829 
    117 H117       31.7645   34.1217    3.0327 H         1 UNK         0.0813 
    118 H118       31.0496   33.1478    1.7536 H         1 UNK         0.0813 
    119 H119       30.2127   34.5807    2.3485 H         1 UNK         0.0813 
    120 H120       31.1011   32.4768    6.0321 H         1 UNK         0.3038 
    121 H121       31.4802   29.7382    6.0632 H         1 UNK         0.0769 
    122 H122       32.8197   30.1873    8.1319 H         1 UNK         0.0811 
    123 H123       31.3543   31.1501    8.0915 H         1 UNK         0.0811 
    124 H124       32.9106   31.8921    7.7117 H         1 UNK         0.0811 
    125 H125       33.5810   31.9667    4.4858 H         1 UNK         0.3204 
    126 H126       35.9496   30.2209    4.4816 H         1 UNK         0.0748 
    127 H127       36.9386   32.0383    3.1240 H         1 UNK         0.0771 
    128 H128       35.3849   32.8571    3.0261 H         1 UNK         0.0771 
    129 H129       36.2115   32.6995    4.5765 H         1 UNK         0.0771 
    130 H130       33.8113   28.7590    3.5827 H         1 UNK         0.2980 
    131 H131       33.1392   27.3763    2.0041 H         1 UNK         0.0545 
    132 H132       32.0790   30.1745    1.7783 H         1 UNK         0.3459 
    133 H133       31.5965   30.3080    0.1102 H         1 UNK         0.3459 
    134 H134       35.5149   27.9766    0.1977 H         1 UNK         0.0616 
    135 H135       35.7846   27.2294    1.7346 H         1 UNK         0.0616 
    136 H136       36.0396   25.0597    2.1166 H         1 UNK         0.0634 
    137 H137       35.8533   23.7947    0.9379 H         1 UNK         0.0634 
@<TRIPOS>BOND
     1    1    2 1    
     2    1   72 1    
     3    1   73 1    
     4    1   74 1    
     5    2    3 2    
     6    2    4 am   BACKBONE|DICT|INTERRES
     7    4    5 1    
     8    4   75 1    
     9    5    6 1    
    10    5   35 1    
    11    5   76 1    
    12    6    7 1    
    13    6   77 1    
    14    6   78 1    
    15    7    8 1    
    16    8    9 1    
    17    8   79 1    
    18    8   80 1    
    19    9   10 ar   
    20    9   14 ar   
    21   10   11 ar   
    22   10   81 1    
    23   11   12 ar   
    24   11   71 1    
    25   12   13 ar   
    26   12   82 1    
    27   13   14 ar   
    28   13   15 1    
    29   14   83 1    
    30   15   16 1    
    31   15   84 1    
    32   15   85 1    
    33   16   17 1    
    34   17   18 1    
    35   17   86 1    
    36   17   87 1    
    37   18   19 1    
    38   18   37 1    
    39   18   88 1    
    40   19   20 am   BACKBONE|DICT|INTERRES
    41   19   89 1    
    42   20   21 2    
    43   20   22 1    
    44   22   23 1    
    45   22   24 1    
    46   22   90 1    
    47   23   91 1    
    48   23   92 1    
    49   23   93 1    
    50   24   25 am   BACKBONE|DICT|INTERRES
    51   24   94 1    
    52   25   26 2    
    53   25   27 1    
    54   27   28 1    
    55   27   29 1    
    56   27   95 1    
    57   28   96 1    
    58   28   97 1    
    59   28   98 1    
    60   29   30 am   BACKBONE|DICT|INTERRES
    61   29   99 1    
    62   30   31 2    
    63   30   32 1    
    64   32   33 1    
    65   32   34 1    
    66   32  100 1    
    67   33  101 1    
    68   33  102 1    
    69   33  103 1    
    70   34   35 am   BACKBONE|DICT|INTERRES
    71   34  104 1    
    72   35   36 2    
    73   37   38 2    
    74   37   39 am   BACKBONE|DICT|INTERRES
    75   39   40 1    
    76   39  105 1    
    77   40   41 1    
    78   40   42 1    
    79   40  106 1    
    80   41  107 1    
    81   41  108 1    
    82   41  109 1    
    83   42   43 2    
    84   42   44 am   BACKBONE|DICT|INTERRES
    85   44   45 1    
    86   44  110 1    
    87   45   46 1    
    88   45   47 1    
    89   45  111 1    
    90   46  112 1    
    91   46  113 1    
    92   46  114 1    
    93   47   48 2    
    94   47   49 am   BACKBONE|DICT|INTERRES
    95   49   50 1    
    96   49  115 1    
    97   50   51 1    
    98   50   52 1    
    99   50  116 1    
   100   51  117 1    
   101   51  118 1    
   102   51  119 1    
   103   52   53 2    
   104   52   54 am   BACKBONE|DICT|INTERRES
   105   54   55 1    
   106   54  120 1    
   107   55   56 1    
   108   55   57 1    
   109   55  121 1    
   110   56  122 1    
   111   56  123 1    
   112   56  124 1    
   113   57   58 2    
   114   57   59 am   BACKBONE|DICT|INTERRES
   115   59   60 1    
   116   59  125 1    
   117   60   61 1    
   118   60   62 1    
   119   60  126 1    
   120   61  127 1    
   121   61  128 1    
   122   61  129 1    
   123   62   63 2    
   124   62   64 am   BACKBONE|DICT|INTERRES
   125   64   65 1    
   126   64  130 1    
   127   65   66 1    
   128   65   69 1    
   129   65  131 1    
   130   66   67 am   BACKBONE|DICT|INTERRES
   131   66   68 2    
   132   67  132 1    
   133   67  133 1    
   134   69   70 1    
   135   69  134 1    
   136   69  135 1    
   137   70   71 1    
   138   71  136 1    
   139   71  137 1    
@<TRIPOS>SUBSTRUCTURE
     1 UNK         1 GROUP             0       ****    0 ROOT    
