@<TRIPOS>MOLECULE
3R136
137   139    1
SMALL
USER_CHARGES


@<TRIPOS>ATOM
      1 CA         33.1085   21.5321   -3.5244 C.3       0 UNK        -0.1979 
      2 C          32.7487   22.4400   -2.3574 C.2       0 UNK         0.4864 
      3 O          33.5394   23.3131   -1.9955 O.2       0 UNK        -0.5359 
      4 N          31.5678   22.2341   -1.7609 N.am      1 UNK        -0.4318 
      5 CA         31.0383   23.0416   -0.6581 C.3       1 UNK         0.0824 
      6 C6         29.8818   22.3201    0.0803 C.3       12 UNK        -0.0944 
      7 S7         30.3798   20.7725    0.9099 S.3       12 UNK        -0.2672 
      8 C8         31.5875   21.3282    2.1640 C.3       12 UNK         0.0333 
      9 C9         31.1514   22.5795    2.9181 C.ar      12 UNK        -0.0807 
     10 C10        31.8945   23.7577    2.8074 C.ar      12 UNK        -0.0894 
     11 C11        31.5015   24.9147    3.4844 C.ar      12 UNK        -0.0804 
     12 C12        30.3564   24.8901    4.2875 C.ar      12 UNK        -0.0824 
     13 C13        29.6122   23.7123    4.4175 C.ar      12 UNK        -0.0762 
     14 C14        30.0144   22.5617    3.7307 C.ar      12 UNK        -0.0782 
     15 C15        28.3872   23.6614    5.3174 C.3       12 UNK         0.0230 
     16 S16        26.8595   24.0400    4.4017 S.3       12 UNK        -0.2608 
     17 C17        26.6567   25.8348    4.6831 C.3       12 UNK        -0.0989 
     18 CA         26.7467   26.6873    3.3859 C.3       5 UNK         0.0716 
     19 N          25.8577   26.2241    2.3105 N.am      5 UNK        -0.4135 
     20 C          24.5144   26.2213    2.3117 C.2       4 UNK         0.5031 
     21 O          23.8336   26.4734    3.3073 O.2       4 UNK        -0.5229 
     22 CA         23.8063   25.9503    0.9639 C.3       4 UNK         0.0329 
     23 CB         22.5011   26.7632    0.8271 C.3       4 UNK        -0.2001 
     24 N          24.6530   26.1570   -0.2218 N.am      4 UNK        -0.4303 
     25 C          25.3141   27.2712   -0.5729 C.2       3 UNK         0.5044 
     26 O          25.2964   28.3266    0.0649 O.2       3 UNK        -0.5152 
     27 CA         26.2333   27.1483   -1.7986 C.3       3 UNK         0.0319 
     28 CB         25.9082   28.2324   -2.8389 C.3       3 UNK        -0.2001 
     29 N          27.6546   27.2241   -1.4378 N.am      3 UNK        -0.4354 
     30 C          28.2741   26.4481   -0.5357 C.2       2 UNK         0.4964 
     31 O          27.7045   25.6007    0.1576 O.2       2 UNK        -0.5047 
     32 CA         29.7879   26.6550   -0.3616 C.3       2 UNK         0.0288 
     33 CB         30.0744   27.5383    0.8645 C.3       2 UNK        -0.2113 
     34 N          30.4590   25.3664   -0.1843 N.am      2 UNK        -0.4145 
     35 C          30.5637   24.4283   -1.1365 C.2       1 UNK         0.5006 
     36 O          30.2526   24.6101   -2.3177 O.2       1 UNK        -0.5103 
     37 C          26.5871   28.2036    3.6856 C.2       5 UNK         0.5055 
     38 O          27.0570   28.6602    4.7294 O.2       5 UNK        -0.5220 
     39 N          25.9191   28.9568    2.7974 N.am      6 UNK        -0.4450 
     40 CA         25.5304   30.3533    2.9986 C.3       6 UNK         0.0367 
     41 CB         24.0763   30.5331    2.5312 C.3       6 UNK        -0.1929 
     42 C          26.4498   31.3318    2.2558 C.2       6 UNK         0.5070 
     43 O          26.5640   32.4814    2.6839 O.2       6 UNK        -0.5237 
     44 N          27.0832   30.8811    1.1632 N.am      7 UNK        -0.4739 
     45 CA         28.0805   31.6530    0.4156 C.3       7 UNK         0.0276 
     46 CB         28.3726   30.9531   -0.9213 C.3       7 UNK        -0.1927 
     47 C          29.3733   31.8571    1.2273 C.2       7 UNK         0.5013 
     48 O          29.6970   31.0300    2.0838 O.2       7 UNK        -0.5193 
     49 N          30.0846   32.9554    0.9380 N.am      8 UNK        -0.4253 
     50 CA         31.3261   33.3490    1.6085 C.3       8 UNK         0.0242 
     51 CB         31.7566   34.7398    1.1129 C.3       8 UNK        -0.2000 
     52 C          32.4507   32.3219    1.3954 C.2       8 UNK         0.4948 
     53 O          32.7369   31.9595    0.2516 O.2       8 UNK        -0.5275 
     54 N          33.0660   31.8907    2.4991 N.am      9 UNK        -0.4246 
     55 CA         34.1305   30.8967    2.5709 C.3       9 UNK         0.0261 
     56 CB         33.5630   29.4897    2.2878 C.3       9 UNK        -0.1959 
     57 C          34.7448   30.9651    3.9744 C.2       9 UNK         0.5033 
     58 O          34.1606   31.5796    4.8722 O.2       9 UNK        -0.5390 
     59 N          35.8896   30.2952    4.1546 N.am      10 UNK        -0.4215 
     60 CA         36.6047   30.1757    5.4326 C.3       10 UNK         0.0240 
     61 CB         38.0424   29.7051    5.1498 C.3       10 UNK        -0.1982 
     62 C          35.9214   29.2492    6.4626 C.2       10 UNK         0.4970 
     63 O          36.4139   29.1406    7.5863 O.2       10 UNK        -0.4916 
     64 N          34.8266   28.5874    6.0666 N.am      11 UNK        -0.4279 
     65 CA         34.0498   27.6270    6.8666 C.3       11 UNK         0.1003 
     66 C          33.3445   28.2255    8.1187 C.2       11 UNK         0.5709 
     67 N          33.1570   29.5371    8.2114 N.am      11 UNK        -0.7358 
     68 O          32.9627   27.4838    9.0208 O.2       11 UNK        -0.4999 
     69 C69        33.0256   26.8519    5.9922 C.3       12 UNK        -0.0954 
     70 S70        33.7573   26.1671    4.4660 S.3       12 UNK        -0.2268 
     71 C71        32.3288   26.1814    3.3406 C.3       12 UNK         0.0203 
     72 H72        34.0327   20.9955   -3.3116 H         1 UNK         0.0888 
     73 H73        32.3287   20.7974   -3.7249 H         1 UNK         0.0888 
     74 H74        33.2571   22.1236   -4.4274 H         1 UNK         0.0888 
     75 H75        30.9533   21.5114   -2.1067 H         1 UNK         0.3017 
     76 H76        31.8563   23.2110    0.0422 H         1 UNK         0.0873 
     77 H77        29.4229   22.9674    0.8306 H         1 UNK         0.0745 
     78 H78        29.0799   22.0803   -0.6207 H         1 UNK         0.0745 
     79 H79        31.7475   20.5197    2.8785 H         1 UNK         0.0705 
     80 H80        32.5484   21.4889    1.6726 H         1 UNK         0.0705 
     81 H81        32.7888   23.7773    2.1992 H         1 UNK         0.1334 
     82 H82        30.0518   25.7811    4.8192 H         1 UNK         0.1417 
     83 H83        29.4390   21.6502    3.8227 H         1 UNK         0.1562 
     84 H84        28.5060   24.3306    6.1706 H         1 UNK         0.0748 
     85 H85        28.2913   22.6610    5.7424 H         1 UNK         0.0748 
     86 H86        27.4041   26.1699    5.4038 H         1 UNK         0.0940 
     87 H87        25.6924   25.9874    5.1709 H         1 UNK         0.0940 
     88 H88        27.7576   26.5722    2.9939 H         1 UNK         0.0703 
     89 H89        26.3375   25.9621    1.4527 H         1 UNK         0.3081 
     90 H90        23.5420   24.8919    0.9715 H         1 UNK         0.0719 
     91 H91        22.6874   27.8366    0.8794 H         1 UNK         0.0809 
     92 H92        22.0008   26.5554   -0.1187 H         1 UNK         0.0809 
     93 H93        21.7972   26.5166    1.6230 H         1 UNK         0.0809 
     94 H94        24.7927   25.3345   -0.7930 H         1 UNK         0.2990 
     95 H95        26.0699   26.1753   -2.2666 H         1 UNK         0.0690 
     96 H96        26.5248   28.1280   -3.7318 H         1 UNK         0.0788 
     97 H97        26.0588   29.2355   -2.4400 H         1 UNK         0.0788 
     98 H98        24.8667   28.1652   -3.1565 H         1 UNK         0.0788 
     99 H99        28.2029   27.8984   -1.9510 H         1 UNK         0.2993 
    100 H100       30.1905   27.1394   -1.2539 H         1 UNK         0.0949 
    101 H101       29.7839   27.0464    1.7929 H         1 UNK         0.0767 
    102 H102       31.1334   27.7866    0.9330 H         1 UNK         0.0767 
    103 H103       29.5279   28.4798    0.8181 H         1 UNK         0.0767 
    104 H104       30.6828   25.1130    0.7668 H         1 UNK         0.3013 
    105 H105       25.6039   28.5336    1.9277 H         1 UNK         0.3121 
    106 H106       25.5744   30.6026    4.0610 H         1 UNK         0.0774 
    107 H107       23.7356   31.5555    2.6994 H         1 UNK         0.0815 
    108 H108       23.9644   30.3224    1.4667 H         1 UNK         0.0815 
    109 H109       23.4014   29.8719    3.0752 H         1 UNK         0.0815 
    110 H110       26.9163   29.9295    0.8679 H         1 UNK         0.2987 
    111 H111       27.6525   32.6356    0.2037 H         1 UNK         0.0949 
    112 H112       28.7589   29.9455   -0.7782 H         1 UNK         0.0806 
    113 H113       27.4741   30.8877   -1.5337 H         1 UNK         0.0806 
    114 H114       29.1146   31.5053   -1.4997 H         1 UNK         0.0806 
    115 H115       29.7657   33.5599    0.1949 H         1 UNK         0.3010 
    116 H116       31.1105   33.4201    2.6770 H         1 UNK         0.0829 
    117 H117       30.9914   35.4896    1.3149 H         1 UNK         0.0813 
    118 H118       32.6688   35.0668    1.6138 H         1 UNK         0.0813 
    119 H119       31.9561   34.7421    0.0403 H         1 UNK         0.0813 
    120 H120       32.8092   32.2623    3.4070 H         1 UNK         0.3038 
    121 H121       34.9014   31.1454    1.8386 H         1 UNK         0.0769 
    122 H122       32.7657   29.2353    2.9870 H         1 UNK         0.0811 
    123 H123       34.3319   28.7207    2.3694 H         1 UNK         0.0811 
    124 H124       33.1522   29.4201    1.2806 H         1 UNK         0.0811 
    125 H125       36.2982   29.8124    3.3663 H         1 UNK         0.3204 
    126 H126       36.6558   31.1679    5.8859 H         1 UNK         0.0748 
    127 H127       38.6284   29.6560    6.0688 H         1 UNK         0.0771 
    128 H128       38.0606   28.7119    4.6991 H         1 UNK         0.0771 
    129 H129       38.5600   30.3899    4.4777 H         1 UNK         0.0771 
    130 H130       34.4992   28.7303    5.1247 H         1 UNK         0.2980 
    131 H131       34.7675   26.8985    7.2482 H         1 UNK         0.0545 
    132 H132       32.7023   29.9151    9.0272 H         1 UNK         0.3459 
    133 H133       33.4657   30.1503    7.4732 H         1 UNK         0.3459 
    134 H134       32.1981   27.5103    5.7222 H         1 UNK         0.0616 
    135 H135       32.5882   26.0253    6.5551 H         1 UNK         0.0616 
    136 H136       31.7157   27.0671    3.5104 H         1 UNK         0.0634 
    137 H137       32.6973   26.2617    2.3169 H         1 UNK         0.0634 
@<TRIPOS>BOND
     1    1    2 1    
     2    1   72 1    
     3    1   73 1    
     4    1   74 1    
     5    2    3 2    
     6    2    4 am   BACKBONE|DICT|INTERRES
     7    4    5 1    
     8    4   75 1    
     9    5    6 1    
    10    5   35 1    
    11    5   76 1    
    12    6    7 1    
    13    6   77 1    
    14    6   78 1    
    15    7    8 1    
    16    8    9 1    
    17    8   79 1    
    18    8   80 1    
    19    9   10 ar   
    20    9   14 ar   
    21   10   11 ar   
    22   10   81 1    
    23   11   12 ar   
    24   11   71 1    
    25   12   13 ar   
    26   12   82 1    
    27   13   14 ar   
    28   13   15 1    
    29   14   83 1    
    30   15   16 1    
    31   15   84 1    
    32   15   85 1    
    33   16   17 1    
    34   17   18 1    
    35   17   86 1    
    36   17   87 1    
    37   18   19 1    
    38   18   37 1    
    39   18   88 1    
    40   19   20 am   BACKBONE|DICT|INTERRES
    41   19   89 1    
    42   20   21 2    
    43   20   22 1    
    44   22   23 1    
    45   22   24 1    
    46   22   90 1    
    47   23   91 1    
    48   23   92 1    
    49   23   93 1    
    50   24   25 am   BACKBONE|DICT|INTERRES
    51   24   94 1    
    52   25   26 2    
    53   25   27 1    
    54   27   28 1    
    55   27   29 1    
    56   27   95 1    
    57   28   96 1    
    58   28   97 1    
    59   28   98 1    
    60   29   30 am   BACKBONE|DICT|INTERRES
    61   29   99 1    
    62   30   31 2    
    63   30   32 1    
    64   32   33 1    
    65   32   34 1    
    66   32  100 1    
    67   33  101 1    
    68   33  102 1    
    69   33  103 1    
    70   34   35 am   BACKBONE|DICT|INTERRES
    71   34  104 1    
    72   35   36 2    
    73   37   38 2    
    74   37   39 am   BACKBONE|DICT|INTERRES
    75   39   40 1    
    76   39  105 1    
    77   40   41 1    
    78   40   42 1    
    79   40  106 1    
    80   41  107 1    
    81   41  108 1    
    82   41  109 1    
    83   42   43 2    
    84   42   44 am   BACKBONE|DICT|INTERRES
    85   44   45 1    
    86   44  110 1    
    87   45   46 1    
    88   45   47 1    
    89   45  111 1    
    90   46  112 1    
    91   46  113 1    
    92   46  114 1    
    93   47   48 2    
    94   47   49 am   BACKBONE|DICT|INTERRES
    95   49   50 1    
    96   49  115 1    
    97   50   51 1    
    98   50   52 1    
    99   50  116 1    
   100   51  117 1    
   101   51  118 1    
   102   51  119 1    
   103   52   53 2    
   104   52   54 am   BACKBONE|DICT|INTERRES
   105   54   55 1    
   106   54  120 1    
   107   55   56 1    
   108   55   57 1    
   109   55  121 1    
   110   56  122 1    
   111   56  123 1    
   112   56  124 1    
   113   57   58 2    
   114   57   59 am   BACKBONE|DICT|INTERRES
   115   59   60 1    
   116   59  125 1    
   117   60   61 1    
   118   60   62 1    
   119   60  126 1    
   120   61  127 1    
   121   61  128 1    
   122   61  129 1    
   123   62   63 2    
   124   62   64 am   BACKBONE|DICT|INTERRES
   125   64   65 1    
   126   64  130 1    
   127   65   66 1    
   128   65   69 1    
   129   65  131 1    
   130   66   67 am   BACKBONE|DICT|INTERRES
   131   66   68 2    
   132   67  132 1    
   133   67  133 1    
   134   69   70 1    
   135   69  134 1    
   136   69  135 1    
   137   70   71 1    
   138   71  136 1    
   139   71  137 1    
@<TRIPOS>SUBSTRUCTURE
     1 UNK         1 GROUP             0       ****    0 ROOT    
