@<TRIPOS>MOLECULE
3R136
137   139    1
SMALL
USER_CHARGES


@<TRIPOS>ATOM
      1 CA         30.4479   27.2549    2.6093 C.3       0 UNK        -0.1979 
      2 C          29.5049   26.1318    2.2019 C.2       0 UNK         0.4864 
      3 O          28.7941   26.2667    1.2041 O.2       0 UNK        -0.5359 
      4 N          29.4884   25.0495    2.9961 N.am      1 UNK        -0.4318 
      5 CA         28.7595   23.7827    2.8106 C.3       1 UNK         0.0824 
      6 C6         29.5029   22.7839    1.8841 C.3       12 UNK        -0.0944 
      7 S7         31.1641   22.3456    2.4990 S.3       12 UNK        -0.2672 
      8 C8         32.1697   22.4836    0.9863 C.3       12 UNK         0.0333 
      9 C9         32.4664   23.9328    0.6299 C.ar      12 UNK        -0.0807 
     10 C10        33.4931   24.6150    1.2870 C.ar      12 UNK        -0.0894 
     11 C11        33.7762   25.9473    0.9731 C.ar      12 UNK        -0.0804 
     12 C12        33.0339   26.5911   -0.0218 C.ar      12 UNK        -0.0824 
     13 C13        32.0004   25.9216   -0.6861 C.ar      12 UNK        -0.0762 
     14 C14        31.7284   24.5893   -0.3596 C.ar      12 UNK        -0.0782 
     15 C15        31.1790   26.6303   -1.7568 C.3       12 UNK         0.0230 
     16 S16        30.4210   28.1583   -1.1229 S.3       12 UNK        -0.2608 
     17 C17        29.1688   28.5228   -2.4009 C.3       12 UNK        -0.0989 
     18 CA         27.6985   28.2522   -1.9635 C.3       5 UNK         0.0716 
     19 N          27.3910   26.8475   -1.6805 N.am      5 UNK        -0.4135 
     20 C          27.3657   25.8855   -2.6128 C.2       4 UNK         0.5031 
     21 O          27.6525   26.0676   -3.7971 O.2       4 UNK        -0.5229 
     22 CA         26.9363   24.4769   -2.1662 C.3       4 UNK         0.0329 
     23 CB         28.1196   23.7477   -1.5211 C.3       4 UNK        -0.2001 
     24 N          25.7960   24.4763   -1.2468 N.am      4 UNK        -0.4303 
     25 C          24.5655   24.9094   -1.5640 C.2       3 UNK         0.5044 
     26 O          24.2575   25.3166   -2.6851 O.2       3 UNK        -0.5152 
     27 CA         23.4787   24.8856   -0.4693 C.3       3 UNK         0.0319 
     28 CB         22.4529   23.7760   -0.7553 C.3       3 UNK        -0.2001 
     29 N          23.9698   24.7290    0.9028 N.am      3 UNK        -0.4354 
     30 C          24.7900   25.5728    1.5429 C.2       2 UNK         0.4964 
     31 O          25.2684   26.5786    1.0223 O.2       2 UNK        -0.5047 
     32 CA         25.1671   25.2259    2.9967 C.3       2 UNK         0.0288 
     33 CB         24.2921   24.1184    3.6289 C.3       2 UNK        -0.2113 
     34 N          26.5876   24.8831    3.1308 N.am      2 UNK        -0.4145 
     35 C          27.2680   23.9563    2.4357 C.2       1 UNK         0.5006 
     36 O          26.7670   23.2607    1.5474 O.2       1 UNK        -0.5103 
     37 C          27.2628   29.1746   -0.8118 C.2       5 UNK         0.5055 
     38 O          26.7393   30.2552   -1.0886 O.2       5 UNK        -0.5220 
     39 N          27.5067   28.7565    0.4423 N.am      6 UNK        -0.4450 
     40 CA         27.3173   29.5331    1.6768 C.3       6 UNK         0.0367 
     41 CB         25.8250   29.8399    1.9366 C.3       6 UNK        -0.1929 
     42 C          28.1940   30.8032    1.7312 C.2       6 UNK         0.5070 
     43 O          27.7600   31.8191    2.2767 O.2       6 UNK        -0.5237 
     44 N          29.4085   30.7319    1.1612 N.am      7 UNK        -0.4739 
     45 CA         30.3670   31.8429    1.0814 C.3       7 UNK         0.0276 
     46 CB         31.5829   31.4148    0.2432 C.3       7 UNK        -0.1927 
     47 C          30.8110   32.3684    2.4581 C.2       7 UNK         0.5013 
     48 O          30.8510   33.5820    2.6647 O.2       7 UNK        -0.5193 
     49 N          31.0955   31.4383    3.3740 N.am      8 UNK        -0.4253 
     50 CA         31.3751   31.6596    4.7873 C.3       8 UNK         0.0242 
     51 CB         32.7621   32.3000    4.9881 C.3       8 UNK        -0.2000 
     52 C          31.3039   30.2899    5.4625 C.2       8 UNK         0.4948 
     53 O          31.7801   29.3148    4.8778 O.2       8 UNK        -0.5275 
     54 N          30.7466   30.2304    6.6788 N.am      9 UNK        -0.4246 
     55 CA         30.5497   28.9879    7.4399 C.3       9 UNK         0.0261 
     56 CB         29.7285   29.2878    8.7047 C.3       9 UNK        -0.1959 
     57 C          31.8558   28.2583    7.8065 C.2       9 UNK         0.5033 
     58 O          31.8579   27.0297    7.8919 O.2       9 UNK        -0.5390 
     59 N          32.9343   29.0276    7.9988 N.am      10 UNK        -0.4215 
     60 CA         34.2879   28.5363    8.2651 C.3       10 UNK         0.0240 
     61 CB         34.8769   29.3447    9.4362 C.3       10 UNK        -0.1982 
     62 C          35.2018   28.6176    7.0260 C.2       10 UNK         0.4970 
     63 O          36.3969   28.3523    7.1619 O.2       10 UNK        -0.4916 
     64 N          34.6565   29.0052    5.8610 N.am      11 UNK        -0.4279 
     65 CA         35.3801   29.2246    4.5928 C.3       11 UNK         0.1003 
     66 C          36.4274   30.3827    4.6212 C.2       11 UNK         0.5709 
     67 N          36.3932   31.2847    5.5954 N.am      11 UNK        -0.7358 
     68 O          37.2611   30.4958    3.7255 O.2       11 UNK        -0.4999 
     69 C69        35.9427   27.9055    3.9885 C.3       12 UNK        -0.0954 
     70 S70        34.6017   26.7745    3.4923 S.3       12 UNK        -0.2268 
     71 C71        34.8917   26.6863    1.6966 C.3       12 UNK         0.0203 
     72 H72        29.8943   28.0674    3.0766 H         1 UNK         0.0888 
     73 H73        31.2068   26.9123    3.3132 H         1 UNK         0.0888 
     74 H74        30.9669   27.6496    1.7380 H         1 UNK         0.0888 
     75 H75        30.1050   25.0492    3.7963 H         1 UNK         0.3017 
     76 H76        28.7325   23.3234    3.8001 H         1 UNK         0.0873 
     77 H77        29.5838   23.1926    0.8809 H         1 UNK         0.0745 
     78 H78        28.9431   21.8516    1.7889 H         1 UNK         0.0745 
     79 H79        31.6670   21.9741    0.1626 H         1 UNK         0.0705 
     80 H80        33.1092   21.9511    1.1421 H         1 UNK         0.0705 
     81 H81        34.0662   24.1119    2.0541 H         1 UNK         0.1334 
     82 H82        33.2478   27.6209   -0.2738 H         1 UNK         0.1417 
     83 H83        30.9395   24.0613   -0.8743 H         1 UNK         0.1562 
     84 H84        30.3917   25.9737   -2.1290 H         1 UNK         0.0748 
     85 H85        31.8183   26.8690   -2.6076 H         1 UNK         0.0748 
     86 H86        29.4049   27.9655   -3.3080 H         1 UNK         0.0940 
     87 H87        29.2804   29.5719   -2.6817 H         1 UNK         0.0940 
     88 H88        27.0633   28.5302   -2.8078 H         1 UNK         0.0703 
     89 H89        27.1157   26.6231   -0.7318 H         1 UNK         0.3081 
     90 H90        26.6384   23.9191   -3.0565 H         1 UNK         0.0719 
     91 H91        28.9388   23.6315   -2.2315 H         1 UNK         0.0809 
     92 H92        28.4973   24.3128   -0.6699 H         1 UNK         0.0809 
     93 H93        27.8418   22.7522   -1.1742 H         1 UNK         0.0809 
     94 H94        25.9677   24.1489   -0.3024 H         1 UNK         0.2990 
     95 H95        22.9629   25.8467   -0.5189 H         1 UNK         0.0690 
     96 H96        21.6208   23.8117   -0.0518 H         1 UNK         0.0788 
     97 H97        22.9047   22.7850   -0.6939 H         1 UNK         0.0788 
     98 H98        22.0309   23.8800   -1.7561 H         1 UNK         0.0788 
     99 H99        23.6621   23.9058    1.4002 H         1 UNK         0.2993 
    100 H100       25.0104   26.1404    3.5710 H         1 UNK         0.0949 
    101 H101       24.4321   23.1513    3.1443 H         1 UNK         0.0767 
    102 H102       24.5325   23.9903    4.6844 H         1 UNK         0.0767 
    103 H103       23.2321   24.3713    3.5753 H         1 UNK         0.0767 
    104 H104       27.1076   25.4355    3.7975 H         1 UNK         0.3013 
    105 H105       27.9698   27.8574    0.5723 H         1 UNK         0.3121 
    106 H106       27.6601   28.8928    2.4899 H         1 UNK         0.0774 
    107 H107       25.2192   28.9366    1.9294 H         1 UNK         0.0815 
    108 H108       25.6864   30.3044    2.9135 H         1 UNK         0.0815 
    109 H109       25.4142   30.5238    1.1938 H         1 UNK         0.0815 
    110 H110       29.6716   29.8705    0.7013 H         1 UNK         0.2987 
    111 H111       29.8701   32.6669    0.5646 H         1 UNK         0.0949 
    112 H112       31.2915   31.1639   -0.7769 H         1 UNK         0.0806 
    113 H113       32.3165   32.2197    0.1789 H         1 UNK         0.0806 
    114 H114       32.0866   30.5468    0.6706 H         1 UNK         0.0806 
    115 H115       31.0511   30.4608    3.1148 H         1 UNK         0.3010 
    116 H116       30.6021   32.3096    5.2025 H         1 UNK         0.0829 
    117 H117       33.0098   32.3822    6.0470 H         1 UNK         0.0813 
    118 H118       33.5474   31.7158    4.5094 H         1 UNK         0.0813 
    119 H119       32.8005   33.3067    4.5724 H         1 UNK         0.0813 
    120 H120       30.3868   31.0781    7.0952 H         1 UNK         0.3038 
    121 H121       29.9693   28.3088    6.8113 H         1 UNK         0.0769 
    122 H122       29.5470   28.3768    9.2770 H         1 UNK         0.0811 
    123 H123       28.7545   29.7096    8.4560 H         1 UNK         0.0811 
    124 H124       30.2414   29.9892    9.3641 H         1 UNK         0.0811 
    125 H125       32.8215   30.0282    7.9224 H         1 UNK         0.3204 
    126 H126       34.2551   27.4866    8.5639 H         1 UNK         0.0748 
    127 H127       35.8647   28.9744    9.7142 H         1 UNK         0.0771 
    128 H128       34.9829   30.4013    9.1871 H         1 UNK         0.0771 
    129 H129       34.2475   29.2710   10.3233 H         1 UNK         0.0771 
    130 H130       33.6531   29.1310    5.8033 H         1 UNK         0.2980 
    131 H131       34.6222   29.5891    3.8984 H         1 UNK         0.0545 
    132 H132       35.7199   31.2133    6.3392 H         1 UNK         0.3459 
    133 H133       37.0667   32.0342    5.5934 H         1 UNK         0.3459 
    134 H134       36.5640   28.1074    3.1148 H         1 UNK         0.0616 
    135 H135       36.5923   27.3919    4.6978 H         1 UNK         0.0616 
    136 H136       34.9934   27.6998    1.3049 H         1 UNK         0.0634 
    137 H137       35.8396   26.1800    1.5092 H         1 UNK         0.0634 
@<TRIPOS>BOND
     1    1    2 1    
     2    1   72 1    
     3    1   73 1    
     4    1   74 1    
     5    2    3 2    
     6    2    4 am   BACKBONE|DICT|INTERRES
     7    4    5 1    
     8    4   75 1    
     9    5    6 1    
    10    5   35 1    
    11    5   76 1    
    12    6    7 1    
    13    6   77 1    
    14    6   78 1    
    15    7    8 1    
    16    8    9 1    
    17    8   79 1    
    18    8   80 1    
    19    9   10 ar   
    20    9   14 ar   
    21   10   11 ar   
    22   10   81 1    
    23   11   12 ar   
    24   11   71 1    
    25   12   13 ar   
    26   12   82 1    
    27   13   14 ar   
    28   13   15 1    
    29   14   83 1    
    30   15   16 1    
    31   15   84 1    
    32   15   85 1    
    33   16   17 1    
    34   17   18 1    
    35   17   86 1    
    36   17   87 1    
    37   18   19 1    
    38   18   37 1    
    39   18   88 1    
    40   19   20 am   BACKBONE|DICT|INTERRES
    41   19   89 1    
    42   20   21 2    
    43   20   22 1    
    44   22   23 1    
    45   22   24 1    
    46   22   90 1    
    47   23   91 1    
    48   23   92 1    
    49   23   93 1    
    50   24   25 am   BACKBONE|DICT|INTERRES
    51   24   94 1    
    52   25   26 2    
    53   25   27 1    
    54   27   28 1    
    55   27   29 1    
    56   27   95 1    
    57   28   96 1    
    58   28   97 1    
    59   28   98 1    
    60   29   30 am   BACKBONE|DICT|INTERRES
    61   29   99 1    
    62   30   31 2    
    63   30   32 1    
    64   32   33 1    
    65   32   34 1    
    66   32  100 1    
    67   33  101 1    
    68   33  102 1    
    69   33  103 1    
    70   34   35 am   BACKBONE|DICT|INTERRES
    71   34  104 1    
    72   35   36 2    
    73   37   38 2    
    74   37   39 am   BACKBONE|DICT|INTERRES
    75   39   40 1    
    76   39  105 1    
    77   40   41 1    
    78   40   42 1    
    79   40  106 1    
    80   41  107 1    
    81   41  108 1    
    82   41  109 1    
    83   42   43 2    
    84   42   44 am   BACKBONE|DICT|INTERRES
    85   44   45 1    
    86   44  110 1    
    87   45   46 1    
    88   45   47 1    
    89   45  111 1    
    90   46  112 1    
    91   46  113 1    
    92   46  114 1    
    93   47   48 2    
    94   47   49 am   BACKBONE|DICT|INTERRES
    95   49   50 1    
    96   49  115 1    
    97   50   51 1    
    98   50   52 1    
    99   50  116 1    
   100   51  117 1    
   101   51  118 1    
   102   51  119 1    
   103   52   53 2    
   104   52   54 am   BACKBONE|DICT|INTERRES
   105   54   55 1    
   106   54  120 1    
   107   55   56 1    
   108   55   57 1    
   109   55  121 1    
   110   56  122 1    
   111   56  123 1    
   112   56  124 1    
   113   57   58 2    
   114   57   59 am   BACKBONE|DICT|INTERRES
   115   59   60 1    
   116   59  125 1    
   117   60   61 1    
   118   60   62 1    
   119   60  126 1    
   120   61  127 1    
   121   61  128 1    
   122   61  129 1    
   123   62   63 2    
   124   62   64 am   BACKBONE|DICT|INTERRES
   125   64   65 1    
   126   64  130 1    
   127   65   66 1    
   128   65   69 1    
   129   65  131 1    
   130   66   67 am   BACKBONE|DICT|INTERRES
   131   66   68 2    
   132   67  132 1    
   133   67  133 1    
   134   69   70 1    
   135   69  134 1    
   136   69  135 1    
   137   70   71 1    
   138   71  136 1    
   139   71  137 1    
@<TRIPOS>SUBSTRUCTURE
     1 UNK         1 GROUP             0       ****    0 ROOT    
