@<TRIPOS>MOLECULE
3R136
137   139    1
SMALL
USER_CHARGES


@<TRIPOS>ATOM
      1 CA         27.0684   22.4717   -0.8127 C.3       0 UNK        -0.1979 
      2 C          28.2438   22.7641   -1.7340 C.2       0 UNK         0.4864 
      3 O          28.1429   22.5553   -2.9433 O.2       0 UNK        -0.5359 
      4 N          29.3564   23.2520   -1.1705 N.am      1 UNK        -0.4318 
      5 CA         30.5828   23.6380   -1.8850 C.3       1 UNK         0.0824 
      6 C6         31.7951   23.7636   -0.9243 C.3       12 UNK        -0.0944 
      7 S7         31.4318   24.7032    0.6029 S.3       12 UNK        -0.2672 
      8 C8         31.7927   23.4493    1.8746 C.3       12 UNK         0.0333 
      9 C9         31.3124   23.8725    3.2566 C.ar      12 UNK        -0.0807 
     10 C10        31.7955   25.0449    3.8460 C.ar      12 UNK        -0.0894 
     11 C11        31.3671   25.4286    5.1200 C.ar      12 UNK        -0.0804 
     12 C12        30.4601   24.6238    5.8148 C.ar      12 UNK        -0.0824 
     13 C13        29.9710   23.4473    5.2381 C.ar      12 UNK        -0.0762 
     14 C14        30.4008   23.0772    3.9595 C.ar      12 UNK        -0.0782 
     15 C15        28.9739   22.5778    5.9921 C.3       12 UNK         0.0230 
     16 S16        27.2853   22.7403    5.3263 S.3       12 UNK        -0.2608 
     17 C17        26.9023   24.4860    5.7018 C.3       12 UNK        -0.0989 
     18 CA         27.1595   25.4170    4.4849 C.3       5 UNK         0.0716 
     19 N          26.4030   25.0460    3.2830 N.am      5 UNK        -0.4135 
     20 C          25.0755   25.0799    3.1135 C.2       4 UNK         0.5031 
     21 O          24.2745   25.4457    3.9756 O.2       4 UNK        -0.5229 
     22 CA         24.5712   24.6578    1.7188 C.3       4 UNK         0.0329 
     23 CB         23.0792   24.2766    1.7273 C.3       4 UNK        -0.2001 
     24 N          24.7882   25.6999    0.7097 N.am      4 UNK        -0.4303 
     25 C          25.9769   26.0730    0.2209 C.2       3 UNK         0.5044 
     26 O          27.0533   25.5820    0.5811 O.2       3 UNK        -0.5152 
     27 CA         25.9682   27.1782   -0.8437 C.3       3 UNK         0.0319 
     28 CB         25.6780   28.5556   -0.2261 C.3       3 UNK        -0.2001 
     29 N          27.2900   27.1938   -1.4555 N.am      3 UNK        -0.4354 
     30 C          27.5621   27.2661   -2.7624 C.2       2 UNK         0.4964 
     31 O          26.7305   27.5213   -3.6332 O.2       2 UNK        -0.5047 
     32 CA         29.0038   26.9282   -3.1570 C.3       2 UNK         0.0288 
     33 CB         29.9471   28.1246   -2.9310 C.3       2 UNK        -0.2113 
     34 N          29.4423   25.7541   -2.3999 N.am      2 UNK        -0.4145 
     35 C          30.4114   24.9041   -2.7557 C.2       1 UNK         0.5006 
     36 O          31.1407   25.0686   -3.7356 O.2       1 UNK        -0.5103 
     37 C          27.0183   26.9179    4.8200 C.2       5 UNK         0.5055 
     38 O          26.9355   27.2924    5.9913 O.2       5 UNK        -0.5220 
     39 N          27.0058   27.7487    3.7707 N.am      6 UNK        -0.4450 
     40 CA         26.9641   29.2104    3.8375 C.3       6 UNK         0.0367 
     41 CB         25.5118   29.6929    3.6639 C.3       6 UNK        -0.1929 
     42 C          27.9223   29.8246    2.8022 C.2       6 UNK         0.5070 
     43 O          27.7112   30.9536    2.3574 O.2       6 UNK        -0.5237 
     44 N          28.9544   29.0640    2.4139 N.am      7 UNK        -0.4739 
     45 CA         29.9975   29.4614    1.4731 C.3       7 UNK         0.0276 
     46 CB         30.6593   28.1869    0.9190 C.3       7 UNK        -0.1927 
     47 C          31.0113   30.3708    2.1824 C.2       7 UNK         0.5013 
     48 O          32.0618   29.8912    2.6079 O.2       7 UNK        -0.5193 
     49 N          30.6662   31.6570    2.3323 N.am      8 UNK        -0.4253 
     50 CA         31.3849   32.6697    3.1211 C.3       8 UNK         0.0242 
     51 CB         30.7112   34.0364    2.9217 C.3       8 UNK        -0.2000 
     52 C          32.9005   32.7789    2.8657 C.2       8 UNK         0.4948 
     53 O          33.6426   33.0772    3.8012 O.2       8 UNK        -0.5275 
     54 N          33.3404   32.4935    1.6320 N.am      9 UNK        -0.4246 
     55 CA         34.7531   32.4110    1.2468 C.3       9 UNK         0.0261 
     56 CB         34.8509   32.2562   -0.2796 C.3       9 UNK        -0.1959 
     57 C          35.5301   31.2798    1.9520 C.2       9 UNK         0.5033 
     58 O          36.7426   31.4108    2.1273 O.2       9 UNK        -0.5390 
     59 N          34.8319   30.2045    2.3402 N.am      10 UNK        -0.4215 
     60 CA         35.3676   29.0814    3.1077 C.3       10 UNK         0.0240 
     61 CB         34.8487   27.7618    2.5088 C.3       10 UNK        -0.1982 
     62 C          34.9693   29.1897    4.5868 C.2       10 UNK         0.4970 
     63 O          35.8117   28.9526    5.4533 O.2       10 UNK        -0.4916 
     64 N          33.6986   29.5235    4.8501 N.am      11 UNK        -0.4279 
     65 CA         33.1181   29.6039    6.1988 C.3       11 UNK         0.1003 
     66 C          33.5974   30.8180    7.0435 C.2       11 UNK         0.5709 
     67 N          34.0736   31.9047    6.4486 N.am      11 UNK        -0.7358 
     68 O          33.5435   30.7669    8.2700 O.2       11 UNK        -0.4999 
     69 C69        31.5660   29.5331    6.1698 C.3       12 UNK        -0.0954 
     70 S70        30.8328   28.1211    5.2669 S.3       12 UNK        -0.2268 
     71 C71        31.8831   26.7147    5.7415 C.3       12 UNK         0.0203 
     72 H72        26.2038   23.0656   -1.1079 H         1 UNK         0.0888 
     73 H73        26.7964   21.4183   -0.8723 H         1 UNK         0.0888 
     74 H74        27.2989   22.7048    0.2268 H         1 UNK         0.0888 
     75 H75        29.3807   23.4162   -0.1731 H         1 UNK         0.3017 
     76 H76        30.8103   22.8310   -2.5853 H         1 UNK         0.0873 
     77 H77        32.1330   22.7623   -0.6537 H         1 UNK         0.0745 
     78 H78        32.6504   24.2240   -1.4232 H         1 UNK         0.0745 
     79 H79        31.3285   22.5049    1.5857 H         1 UNK         0.0705 
     80 H80        32.8684   23.2710    1.9070 H         1 UNK         0.0705 
     81 H81        32.4981   25.6648    3.3059 H         1 UNK         0.1334 
     82 H82        30.1268   24.9214    6.7998 H         1 UNK         0.1417 
     83 H83        30.0198   22.1677    3.5147 H         1 UNK         0.1562 
     84 H84        28.9699   22.8212    7.0558 H         1 UNK         0.0748 
     85 H85        29.2811   21.5333    5.9216 H         1 UNK         0.0748 
     86 H86        27.4964   24.7975    6.5627 H         1 UNK         0.0940 
     87 H87        25.8605   24.5520    6.0198 H         1 UNK         0.0940 
     88 H88        28.2059   25.3031    4.2021 H         1 UNK         0.0703 
     89 H89        26.9607   24.8139    2.4681 H         1 UNK         0.3081 
     90 H90        25.1338   23.7698    1.4221 H         1 UNK         0.0719 
     91 H91        22.4437   25.1282    1.9740 H         1 UNK         0.0809 
     92 H92        22.7624   23.8907    0.7581 H         1 UNK         0.0809 
     93 H93        22.8804   23.4976    2.4647 H         1 UNK         0.0809 
     94 H94        23.9607   26.1740    0.3771 H         1 UNK         0.2990 
     95 H95        25.2059   26.9345   -1.5869 H         1 UNK         0.0690 
     96 H96        25.6744   29.3340   -0.9893 H         1 UNK         0.0788 
     97 H97        26.4257   28.8276    0.5178 H         1 UNK         0.0788 
     98 H98        24.7023   28.5771    0.2606 H         1 UNK         0.0788 
     99 H99        28.0300   26.9592   -0.8082 H         1 UNK         0.2993 
    100 H100       29.0037   26.6755   -4.2199 H         1 UNK         0.0949 
    101 H101       29.6262   28.9862   -3.5179 H         1 UNK         0.0767 
    102 H102       29.9697   28.4336   -1.8868 H         1 UNK         0.0767 
    103 H103       30.9680   27.8905   -3.2329 H         1 UNK         0.0767 
    104 H104       28.8652   25.4860   -1.6153 H         1 UNK         0.3013 
    105 H105       27.0678   27.3494    2.8442 H         1 UNK         0.3121 
    106 H106       27.3248   29.5437    4.8131 H         1 UNK         0.0774 
    107 H107       25.1101   29.4199    2.6881 H         1 UNK         0.0815 
    108 H108       25.4433   30.7776    3.7554 H         1 UNK         0.0815 
    109 H109       24.8600   29.2641    4.4253 H         1 UNK         0.0815 
    110 H110       29.1118   28.1937    2.9017 H         1 UNK         0.2987 
    111 H111       29.5531   30.0113    0.6404 H         1 UNK         0.0949 
    112 H112       31.1135   27.5896    1.7114 H         1 UNK         0.0806 
    113 H113       29.9377   27.5532    0.4045 H         1 UNK         0.0806 
    114 H114       31.4479   28.4310    0.2063 H         1 UNK         0.0806 
    115 H115       29.7462   31.9220    2.0018 H         1 UNK         0.3010 
    116 H116       31.2664   32.3869    4.1687 H         1 UNK         0.0829 
    117 H117       29.6655   34.0129    3.2295 H         1 UNK         0.0813 
    118 H118       31.2039   34.8068    3.5170 H         1 UNK         0.0813 
    119 H119       30.7481   34.3558    1.8794 H         1 UNK         0.0813 
    120 H120       32.6585   32.2587    0.9256 H         1 UNK         0.3038 
    121 H121       35.2276   33.3540    1.5265 H         1 UNK         0.0769 
    122 H122       34.3722   31.3387   -0.6243 H         1 UNK         0.0811 
    123 H123       35.8927   32.2204   -0.6017 H         1 UNK         0.0811 
    124 H124       34.3837   33.0952   -0.7955 H         1 UNK         0.0811 
    125 H125       33.8235   30.2006    2.2020 H         1 UNK         0.3204 
    126 H126       36.4582   29.0717    3.0528 H         1 UNK         0.0748 
    127 H127       33.7591   27.7095    2.5202 H         1 UNK         0.0771 
    128 H128       35.1756   27.6424    1.4758 H         1 UNK         0.0771 
    129 H129       35.2228   26.9038    3.0690 H         1 UNK         0.0771 
    130 H130       33.0527   29.6682    4.0770 H         1 UNK         0.2980 
    131 H131       33.4714   28.7295    6.7471 H         1 UNK         0.0545 
    132 H132       34.3847   32.6738    7.0195 H         1 UNK         0.3459 
    133 H133       34.0618   32.0088    5.4404 H         1 UNK         0.3459 
    134 H134       31.1749   29.4992    7.1883 H         1 UNK         0.0616 
    135 H135       31.1611   30.4427    5.7233 H         1 UNK         0.0616 
    136 H136       32.9084   26.8852    5.4122 H         1 UNK         0.0634 
    137 H137       31.9093   26.6296    6.8289 H         1 UNK         0.0634 
@<TRIPOS>BOND
     1    1    2 1    
     2    1   72 1    
     3    1   73 1    
     4    1   74 1    
     5    2    3 2    
     6    2    4 am   BACKBONE|DICT|INTERRES
     7    4    5 1    
     8    4   75 1    
     9    5    6 1    
    10    5   35 1    
    11    5   76 1    
    12    6    7 1    
    13    6   77 1    
    14    6   78 1    
    15    7    8 1    
    16    8    9 1    
    17    8   79 1    
    18    8   80 1    
    19    9   10 ar   
    20    9   14 ar   
    21   10   11 ar   
    22   10   81 1    
    23   11   12 ar   
    24   11   71 1    
    25   12   13 ar   
    26   12   82 1    
    27   13   14 ar   
    28   13   15 1    
    29   14   83 1    
    30   15   16 1    
    31   15   84 1    
    32   15   85 1    
    33   16   17 1    
    34   17   18 1    
    35   17   86 1    
    36   17   87 1    
    37   18   19 1    
    38   18   37 1    
    39   18   88 1    
    40   19   20 am   BACKBONE|DICT|INTERRES
    41   19   89 1    
    42   20   21 2    
    43   20   22 1    
    44   22   23 1    
    45   22   24 1    
    46   22   90 1    
    47   23   91 1    
    48   23   92 1    
    49   23   93 1    
    50   24   25 am   BACKBONE|DICT|INTERRES
    51   24   94 1    
    52   25   26 2    
    53   25   27 1    
    54   27   28 1    
    55   27   29 1    
    56   27   95 1    
    57   28   96 1    
    58   28   97 1    
    59   28   98 1    
    60   29   30 am   BACKBONE|DICT|INTERRES
    61   29   99 1    
    62   30   31 2    
    63   30   32 1    
    64   32   33 1    
    65   32   34 1    
    66   32  100 1    
    67   33  101 1    
    68   33  102 1    
    69   33  103 1    
    70   34   35 am   BACKBONE|DICT|INTERRES
    71   34  104 1    
    72   35   36 2    
    73   37   38 2    
    74   37   39 am   BACKBONE|DICT|INTERRES
    75   39   40 1    
    76   39  105 1    
    77   40   41 1    
    78   40   42 1    
    79   40  106 1    
    80   41  107 1    
    81   41  108 1    
    82   41  109 1    
    83   42   43 2    
    84   42   44 am   BACKBONE|DICT|INTERRES
    85   44   45 1    
    86   44  110 1    
    87   45   46 1    
    88   45   47 1    
    89   45  111 1    
    90   46  112 1    
    91   46  113 1    
    92   46  114 1    
    93   47   48 2    
    94   47   49 am   BACKBONE|DICT|INTERRES
    95   49   50 1    
    96   49  115 1    
    97   50   51 1    
    98   50   52 1    
    99   50  116 1    
   100   51  117 1    
   101   51  118 1    
   102   51  119 1    
   103   52   53 2    
   104   52   54 am   BACKBONE|DICT|INTERRES
   105   54   55 1    
   106   54  120 1    
   107   55   56 1    
   108   55   57 1    
   109   55  121 1    
   110   56  122 1    
   111   56  123 1    
   112   56  124 1    
   113   57   58 2    
   114   57   59 am   BACKBONE|DICT|INTERRES
   115   59   60 1    
   116   59  125 1    
   117   60   61 1    
   118   60   62 1    
   119   60  126 1    
   120   61  127 1    
   121   61  128 1    
   122   61  129 1    
   123   62   63 2    
   124   62   64 am   BACKBONE|DICT|INTERRES
   125   64   65 1    
   126   64  130 1    
   127   65   66 1    
   128   65   69 1    
   129   65  131 1    
   130   66   67 am   BACKBONE|DICT|INTERRES
   131   66   68 2    
   132   67  132 1    
   133   67  133 1    
   134   69   70 1    
   135   69  134 1    
   136   69  135 1    
   137   70   71 1    
   138   71  136 1    
   139   71  137 1    
@<TRIPOS>SUBSTRUCTURE
     1 UNK         1 GROUP             0       ****    0 ROOT    
