@<TRIPOS>MOLECULE
3R136
137   139    1
SMALL
USER_CHARGES


@<TRIPOS>ATOM
      1 CA         26.6899   16.7583   -1.1556 C.3       0 UNK        -0.1979 
      2 C          26.7282   18.2732   -1.0232 C.2       0 UNK         0.4864 
      3 O          25.7435   18.9427   -1.3423 O.2       0 UNK        -0.5359 
      4 N          27.8508   18.8252   -0.5428 N.am      1 UNK        -0.4318 
      5 CA         28.0820   20.2613   -0.3431 C.3       1 UNK         0.0824 
      6 C6         29.5984   20.5846   -0.3858 C.3       12 UNK        -0.0944 
      7 S7         29.9509   22.3492   -0.7005 S.3       12 UNK        -0.2672 
      8 C8         31.0355   22.7202    0.7210 C.3       12 UNK         0.0333 
      9 C9         31.6254   24.1309    0.7518 C.ar      12 UNK        -0.0807 
     10 C10        32.0692   24.6369    1.9777 C.ar      12 UNK        -0.0894 
     11 C11        32.6506   25.9046    2.0640 C.ar      12 UNK        -0.0804 
     12 C12        32.7991   26.6713    0.9065 C.ar      12 UNK        -0.0824 
     13 C13        32.3418   26.1925   -0.3250 C.ar      12 UNK        -0.0762 
     14 C14        31.7662   24.9201   -0.3982 C.ar      12 UNK        -0.0782 
     15 C15        32.4750   27.0423   -1.5813 C.3       12 UNK         0.0230 
     16 S16        30.9559   27.9909   -1.9272 S.3       12 UNK        -0.2608 
     17 C17        30.9882   29.2388   -0.5931 C.3       12 UNK        -0.0989 
     18 CA         29.8263   29.1157    0.4341 C.3       5 UNK         0.0716 
     19 N          29.5955   27.7265    0.8618 N.am      5 UNK        -0.4135 
     20 C          28.4562   27.2441    1.3719 C.2       4 UNK         0.5031 
     21 O          27.4956   27.9536    1.6820 O.2       4 UNK        -0.5229 
     22 CA         28.3910   25.7292    1.6236 C.3       4 UNK         0.0329 
     23 CB         28.8044   25.4023    3.0670 C.3       4 UNK        -0.2001 
     24 N          27.0470   25.2011    1.3891 N.am      4 UNK        -0.4303 
     25 C          26.4293   25.1632    0.2021 C.2       3 UNK         0.5044 
     26 O          26.9588   25.4996   -0.8588 O.2       3 UNK        -0.5152 
     27 CA         24.9880   24.6211    0.2100 C.3       3 UNK         0.0319 
     28 CB         24.2833   24.7836   -1.1500 C.3       3 UNK        -0.2001 
     29 N          24.9801   23.2067    0.5803 N.am      3 UNK        -0.4354 
     30 C          25.0185   22.7298    1.8326 C.2       2 UNK         0.4964 
     31 O          24.9915   23.4414    2.8374 O.2       2 UNK        -0.5047 
     32 CA         25.1540   21.2054    1.9797 C.3       2 UNK         0.0288 
     33 CB         23.7780   20.5238    1.9123 C.3       2 UNK        -0.2113 
     34 N          26.0309   20.6430    0.9500 N.am      2 UNK        -0.4145 
     35 C          27.3638   20.7788    0.9268 C.2       1 UNK         0.5006 
     36 O          28.0068   21.2725    1.8552 O.2       1 UNK        -0.5103 
     37 C          30.0275   30.0972    1.6159 C.2       5 UNK         0.5055 
     38 O          30.7978   31.0514    1.4867 O.2       5 UNK        -0.5220 
     39 N          29.3560   29.8622    2.7511 N.am      6 UNK        -0.4450 
     40 CA         29.5574   30.5421    4.0358 C.3       6 UNK         0.0367 
     41 CB         28.6804   29.8740    5.1049 C.3       6 UNK        -0.1929 
     42 C          29.3292   32.0630    4.0121 C.2       6 UNK         0.5070 
     43 O          29.8960   32.7666    4.8460 O.2       6 UNK        -0.5237 
     44 N          28.5522   32.5545    3.0383 N.am      7 UNK        -0.4739 
     45 CA         28.3496   33.9816    2.7747 C.3       7 UNK         0.0276 
     46 CB         27.2211   34.1439    1.7435 C.3       7 UNK        -0.1927 
     47 C          29.6199   34.7176    2.3008 C.2       7 UNK         0.5013 
     48 O          29.6859   35.9381    2.4548 O.2       7 UNK        -0.5193 
     49 N          30.5881   33.9826    1.7341 N.am      8 UNK        -0.4253 
     50 CA         31.8550   34.5155    1.2280 C.3       8 UNK         0.0242 
     51 CB         31.9222   34.3001   -0.2937 C.3       8 UNK        -0.2000 
     52 C          33.0653   33.8654    1.9136 C.2       8 UNK         0.4948 
     53 O          34.0062   34.5740    2.2720 O.2       8 UNK        -0.5275 
     54 N          33.0348   32.5360    2.0728 N.am      9 UNK        -0.4246 
     55 CA         34.1480   31.7279    2.5754 C.3       9 UNK         0.0261 
     56 CB         34.0792   30.3403    1.9137 C.3       9 UNK        -0.1959 
     57 C          34.1687   31.5779    4.1052 C.2       9 UNK         0.5033 
     58 O          35.1323   31.0122    4.6250 O.2       9 UNK        -0.5390 
     59 N          33.1088   32.0231    4.7983 N.am      10 UNK        -0.4215 
     60 CA         32.8323   31.8905    6.2395 C.3       10 UNK         0.0240 
     61 CB         33.9223   32.5586    7.1016 C.3       10 UNK        -0.1982 
     62 C          32.5621   30.4443    6.6978 C.2       10 UNK         0.4970 
     63 O          31.5946   30.2188    7.4244 O.2       10 UNK        -0.4916 
     64 N          33.4066   29.5033    6.2591 N.am      11 UNK        -0.4279 
     65 CA         33.3388   28.0537    6.5103 C.3       11 UNK         0.1003 
     66 C          33.5496   27.6361    7.9985 C.2       11 UNK         0.5709 
     67 N          34.0988   28.4912    8.8533 N.am      11 UNK        -0.7358 
     68 O          33.2477   26.5082    8.3821 O.2       11 UNK        -0.4999 
     69 C69        32.0931   27.3800    5.8632 C.3       12 UNK        -0.0954 
     70 S70        31.9569   27.6725    4.0671 S.3       12 UNK        -0.2268 
     71 C71        33.1217   26.4402    3.4075 C.3       12 UNK         0.0203 
     72 H72        27.6257   16.2974   -0.8399 H         1 UNK         0.0888 
     73 H73        25.8864   16.3488   -0.5441 H         1 UNK         0.0888 
     74 H74        26.5066   16.4776   -2.1924 H         1 UNK         0.0888 
     75 H75        28.6122   18.2214   -0.2657 H         1 UNK         0.3017 
     76 H76        27.6231   20.7822   -1.1869 H         1 UNK         0.0873 
     77 H77        30.0698   20.0297   -1.1988 H         1 UNK         0.0745 
     78 H78        30.0948   20.2462    0.5258 H         1 UNK         0.0745 
     79 H79        31.8612   22.0074    0.7279 H         1 UNK         0.0705 
     80 H80        30.4637   22.5471    1.6344 H         1 UNK         0.0705 
     81 H81        31.9636   24.0378    2.8722 H         1 UNK         0.1334 
     82 H82        33.2634   27.6448    0.9722 H         1 UNK         0.1417 
     83 H83        31.4339   24.5512   -1.3585 H         1 UNK         0.1562 
     84 H84        32.6882   26.3995   -2.4369 H         1 UNK         0.0748 
     85 H85        33.3238   27.7231   -1.4989 H         1 UNK         0.0748 
     86 H86        30.9536   30.2212   -1.0685 H         1 UNK         0.0940 
     87 H87        31.9548   29.2018   -0.0912 H         1 UNK         0.0940 
     88 H88        28.9181   29.4453   -0.0747 H         1 UNK         0.0703 
     89 H89        30.3531   27.0844    0.6705 H         1 UNK         0.3081 
     90 H90        29.0710   25.2281    0.9332 H         1 UNK         0.0719 
     91 H91        28.1194   25.8421    3.7930 H         1 UNK         0.0809 
     92 H92        28.8304   24.3254    3.2359 H         1 UNK         0.0809 
     93 H93        29.7991   25.7877    3.2882 H         1 UNK         0.0809 
     94 H94        26.5295   24.8848    2.1999 H         1 UNK         0.2990 
     95 H95        24.4227   25.1940    0.9484 H         1 UNK         0.0690 
     96 H96        23.2505   24.4376   -1.1047 H         1 UNK         0.0788 
     97 H97        24.7894   24.2263   -1.9394 H         1 UNK         0.0788 
     98 H98        24.2597   25.8311   -1.4535 H         1 UNK         0.0788 
     99 H99        25.0364   22.5465   -0.1811 H         1 UNK         0.2993 
    100 H100       25.5919   21.0020    2.9597 H         1 UNK         0.0949 
    101 H101       23.2943   20.6792    0.9470 H         1 UNK         0.0767 
    102 H102       23.8610   19.4490    2.0759 H         1 UNK         0.0767 
    103 H103       23.1103   20.9174    2.6801 H         1 UNK         0.0767 
    104 H104       25.5966   20.1613    0.1669 H         1 UNK         0.3013 
    105 H105       28.6768   29.1078    2.7309 H         1 UNK         0.3121 
    106 H106       30.6012   30.3877    4.3141 H         1 UNK         0.0774 
    107 H107       28.8401   30.3328    6.0819 H         1 UNK         0.0815 
    108 H108       27.6192   29.9611    4.8692 H         1 UNK         0.0815 
    109 H109       28.9192   28.8150    5.2061 H         1 UNK         0.0815 
    110 H110       28.1243   31.9028    2.3965 H         1 UNK         0.2987 
    111 H111       28.0334   34.4530    3.7080 H         1 UNK         0.0949 
    112 H112       27.0214   35.1982    1.5462 H         1 UNK         0.0806 
    113 H113       27.4741   33.6769    0.7908 H         1 UNK         0.0806 
    114 H114       26.2902   33.7019    2.0994 H         1 UNK         0.0806 
    115 H115       30.4541   32.9787    1.6629 H         1 UNK         0.3010 
    116 H116       31.9210   35.5890    1.4179 H         1 UNK         0.0829 
    117 H117       31.1158   34.8289   -0.8021 H         1 UNK         0.0813 
    118 H118       32.8623   34.6744   -0.7013 H         1 UNK         0.0813 
    119 H119       31.8473   33.2442   -0.5580 H         1 UNK         0.0813 
    120 H120       32.2144   32.0149    1.7628 H         1 UNK         0.3038 
    121 H121       35.0908   32.1955    2.2832 H         1 UNK         0.0769 
    122 H122       34.9264   29.7200    2.2096 H         1 UNK         0.0811 
    123 H123       34.0992   30.4168    0.8266 H         1 UNK         0.0811 
    124 H124       33.1720   29.8068    2.1982 H         1 UNK         0.0811 
    125 H125       32.3662   32.4573    4.2671 H         1 UNK         0.3204 
    126 H126       31.9110   32.4460    6.4156 H         1 UNK         0.0748 
    127 H127       33.6402   32.5513    8.1553 H         1 UNK         0.0771 
    128 H128       34.8832   32.0498    7.0224 H         1 UNK         0.0771 
    129 H129       34.0702   33.5994    6.8137 H         1 UNK         0.0771 
    130 H130       34.1806   29.8195    5.6797 H         1 UNK         0.2980 
    131 H131       34.2126   27.6458    6.0019 H         1 UNK         0.0545 
    132 H132       34.2428   28.2091    9.8100 H         1 UNK         0.3459 
    133 H133       34.3645   29.4145    8.5517 H         1 UNK         0.3459 
    134 H134       31.1793   27.7468    6.3326 H         1 UNK         0.0616 
    135 H135       32.0985   26.3019    6.0310 H         1 UNK         0.0616 
    136 H136       33.2418   25.6191    4.1153 H         1 UNK         0.0634 
    137 H137       34.1051   26.9008    3.3022 H         1 UNK         0.0634 
@<TRIPOS>BOND
     1    1    2 1    
     2    1   72 1    
     3    1   73 1    
     4    1   74 1    
     5    2    3 2    
     6    2    4 am   BACKBONE|DICT|INTERRES
     7    4    5 1    
     8    4   75 1    
     9    5    6 1    
    10    5   35 1    
    11    5   76 1    
    12    6    7 1    
    13    6   77 1    
    14    6   78 1    
    15    7    8 1    
    16    8    9 1    
    17    8   79 1    
    18    8   80 1    
    19    9   10 ar   
    20    9   14 ar   
    21   10   11 ar   
    22   10   81 1    
    23   11   12 ar   
    24   11   71 1    
    25   12   13 ar   
    26   12   82 1    
    27   13   14 ar   
    28   13   15 1    
    29   14   83 1    
    30   15   16 1    
    31   15   84 1    
    32   15   85 1    
    33   16   17 1    
    34   17   18 1    
    35   17   86 1    
    36   17   87 1    
    37   18   19 1    
    38   18   37 1    
    39   18   88 1    
    40   19   20 am   BACKBONE|DICT|INTERRES
    41   19   89 1    
    42   20   21 2    
    43   20   22 1    
    44   22   23 1    
    45   22   24 1    
    46   22   90 1    
    47   23   91 1    
    48   23   92 1    
    49   23   93 1    
    50   24   25 am   BACKBONE|DICT|INTERRES
    51   24   94 1    
    52   25   26 2    
    53   25   27 1    
    54   27   28 1    
    55   27   29 1    
    56   27   95 1    
    57   28   96 1    
    58   28   97 1    
    59   28   98 1    
    60   29   30 am   BACKBONE|DICT|INTERRES
    61   29   99 1    
    62   30   31 2    
    63   30   32 1    
    64   32   33 1    
    65   32   34 1    
    66   32  100 1    
    67   33  101 1    
    68   33  102 1    
    69   33  103 1    
    70   34   35 am   BACKBONE|DICT|INTERRES
    71   34  104 1    
    72   35   36 2    
    73   37   38 2    
    74   37   39 am   BACKBONE|DICT|INTERRES
    75   39   40 1    
    76   39  105 1    
    77   40   41 1    
    78   40   42 1    
    79   40  106 1    
    80   41  107 1    
    81   41  108 1    
    82   41  109 1    
    83   42   43 2    
    84   42   44 am   BACKBONE|DICT|INTERRES
    85   44   45 1    
    86   44  110 1    
    87   45   46 1    
    88   45   47 1    
    89   45  111 1    
    90   46  112 1    
    91   46  113 1    
    92   46  114 1    
    93   47   48 2    
    94   47   49 am   BACKBONE|DICT|INTERRES
    95   49   50 1    
    96   49  115 1    
    97   50   51 1    
    98   50   52 1    
    99   50  116 1    
   100   51  117 1    
   101   51  118 1    
   102   51  119 1    
   103   52   53 2    
   104   52   54 am   BACKBONE|DICT|INTERRES
   105   54   55 1    
   106   54  120 1    
   107   55   56 1    
   108   55   57 1    
   109   55  121 1    
   110   56  122 1    
   111   56  123 1    
   112   56  124 1    
   113   57   58 2    
   114   57   59 am   BACKBONE|DICT|INTERRES
   115   59   60 1    
   116   59  125 1    
   117   60   61 1    
   118   60   62 1    
   119   60  126 1    
   120   61  127 1    
   121   61  128 1    
   122   61  129 1    
   123   62   63 2    
   124   62   64 am   BACKBONE|DICT|INTERRES
   125   64   65 1    
   126   64  130 1    
   127   65   66 1    
   128   65   69 1    
   129   65  131 1    
   130   66   67 am   BACKBONE|DICT|INTERRES
   131   66   68 2    
   132   67  132 1    
   133   67  133 1    
   134   69   70 1    
   135   69  134 1    
   136   69  135 1    
   137   70   71 1    
   138   71  136 1    
   139   71  137 1    
@<TRIPOS>SUBSTRUCTURE
     1 UNK         1 GROUP             0       ****    0 ROOT    
