@<TRIPOS>MOLECULE
3R136
137   139    1
SMALL
USER_CHARGES


@<TRIPOS>ATOM
      1 CA         25.0437   19.9972    1.8482 C.3       0 UNK        -0.1979 
      2 C          25.7342   21.1454    1.1274 C.2       0 UNK         0.4864 
      3 O          25.1688   21.7081    0.1898 O.2       0 UNK        -0.5359 
      4 N          26.9499   21.5023    1.5623 N.am      1 UNK        -0.4318 
      5 CA         27.7665   22.5826    0.9938 C.3       1 UNK         0.0824 
      6 C6         29.2792   22.3068    1.1678 C.3       12 UNK        -0.0944 
      7 S7         29.8181   22.1028    2.9012 S.3       12 UNK        -0.2672 
      8 C8         31.4526   21.3351    2.6665 C.3       12 UNK         0.0333 
      9 C9         32.5019   22.3482    2.2281 C.ar      12 UNK        -0.0807 
     10 C10        33.3337   22.9522    3.1757 C.ar      12 UNK        -0.0894 
     11 C11        34.3224   23.8587    2.7799 C.ar      12 UNK        -0.0804 
     12 C12        34.4584   24.1799    1.4260 C.ar      12 UNK        -0.0824 
     13 C13        33.6191   23.5990    0.4712 C.ar      12 UNK        -0.0762 
     14 C14        32.6584   22.6671    0.8757 C.ar      12 UNK        -0.0782 
     15 C15        33.7588   23.9741   -0.9977 C.3       12 UNK         0.0230 
     16 S16        33.1009   25.6382   -1.3450 S.3       12 UNK        -0.2608 
     17 C17        31.3108   25.3902   -1.0949 C.3       12 UNK        -0.0989 
     18 CA         30.5485   26.7111   -0.8228 C.3       5 UNK         0.0716 
     19 N          29.1086   26.5662   -1.0340 N.am      5 UNK        -0.4135 
     20 C          28.4745   26.8008   -2.1881 C.2       4 UNK         0.5031 
     21 O          29.0398   27.1293   -3.2320 O.2       4 UNK        -0.5229 
     22 CA         26.9432   26.6484   -2.1813 C.3       4 UNK         0.0329 
     23 CB         26.5461   25.1895   -2.4588 C.3       4 UNK        -0.2001 
     24 N          26.3201   27.0883   -0.9309 N.am      4 UNK        -0.4303 
     25 C          26.2961   28.3453   -0.4683 C.2       3 UNK         0.5044 
     26 O          26.7830   29.3011   -1.0724 O.2       3 UNK        -0.5152 
     27 CA         25.6371   28.5920    0.9031 C.3       3 UNK         0.0319 
     28 CB         24.1488   28.9622    0.7514 C.3       3 UNK        -0.2001 
     29 N          25.8373   27.5110    1.8805 N.am      3 UNK        -0.4354 
     30 C          25.3420   26.2671    1.8709 C.2       2 UNK         0.4964 
     31 O          24.5619   25.8373    1.0189 O.2       2 UNK        -0.5047 
     32 CA         25.8544   25.3199    2.9681 C.3       2 UNK         0.0288 
     33 CB         24.7322   24.9806    3.9621 C.3       2 UNK        -0.2113 
     34 N          26.3936   24.0803    2.4056 N.am      2 UNK        -0.4145 
     35 C          27.3789   23.9911    1.4984 C.2       1 UNK         0.5006 
     36 O          27.9922   24.9693    1.0593 O.2       1 UNK        -0.5103 
     37 C          30.8147   27.2820    0.5814 C.2       5 UNK         0.5055 
     38 O          31.5628   28.2520    0.7026 O.2       5 UNK        -0.5220 
     39 N          30.1754   26.7069    1.6104 N.am      6 UNK        -0.4450 
     40 CA         30.2372   27.1779    2.9924 C.3       6 UNK         0.0367 
     41 CB         30.0370   25.9798    3.9371 C.3       6 UNK        -0.1929 
     42 C          29.1762   28.2708    3.1938 C.2       6 UNK         0.5070 
     43 O          28.0358   27.9670    3.5477 O.2       6 UNK        -0.5237 
     44 N          29.5498   29.5170    2.8967 N.am      7 UNK        -0.4739 
     45 CA         28.6955   30.7007    2.9899 C.3       7 UNK         0.0276 
     46 CB         29.1248   31.6760    1.8774 C.3       7 UNK        -0.1927 
     47 C          28.7857   31.3503    4.3826 C.2       7 UNK         0.5013 
     48 O          29.4543   30.8263    5.2764 O.2       7 UNK        -0.5193 
     49 N          28.1467   32.5194    4.5396 N.am      8 UNK        -0.4253 
     50 CA         28.2296   33.3638    5.7409 C.3       8 UNK         0.0242 
     51 CB         27.2501   34.5408    5.6053 C.3       8 UNK        -0.2000 
     52 C          29.6537   33.8779    6.0376 C.2       8 UNK         0.4948 
     53 O          29.9808   34.1188    7.1995 O.2       8 UNK        -0.5275 
     54 N          30.4825   33.9899    4.9901 N.am      9 UNK        -0.4246 
     55 CA         31.9163   34.2856    5.0560 C.3       9 UNK         0.0261 
     56 CB         32.3046   35.1003    3.8080 C.3       9 UNK        -0.1959 
     57 C          32.7835   33.0132    5.1917 C.2       9 UNK         0.5033 
     58 O          33.9870   33.0812    4.9344 O.2       9 UNK        -0.5390 
     59 N          32.1709   31.8810    5.5716 N.am      10 UNK        -0.4215 
     60 CA         32.7393   30.5331    5.6471 C.3       10 UNK         0.0240 
     61 CB         33.9124   30.4604    6.6537 C.3       10 UNK        -0.1982 
     62 C          33.0579   29.9812    4.2449 C.2       10 UNK         0.4970 
     63 O          32.3478   30.3003    3.2894 O.2       10 UNK        -0.4916 
     64 N          34.0870   29.1346    4.1531 N.am      11 UNK        -0.4279 
     65 CA         34.5191   28.4405    2.9296 C.3       11 UNK         0.1003 
     66 C          35.1786   29.3506    1.8488 C.2       11 UNK         0.5709 
     67 N          35.4133   30.6333    2.1018 N.am      11 UNK        -0.7358 
     68 O          35.4926   28.8807    0.7580 O.2       11 UNK        -0.4999 
     69 C69        35.4309   27.2343    3.2754 C.3       12 UNK        -0.0954 
     70 S70        34.6485   26.0601    4.4360 S.3       12 UNK        -0.2268 
     71 C71        35.2577   24.4626    3.8168 C.3       12 UNK         0.0203 
     72 H72        24.8358   19.1873    1.1494 H         1 UNK         0.0888 
     73 H73        24.0975   20.3338    2.2710 H         1 UNK         0.0888 
     74 H74        25.6542   19.5975    2.6578 H         1 UNK         0.0888 
     75 H75        27.3712   21.0107    2.3391 H         1 UNK         0.3017 
     76 H76        27.5793   22.6062   -0.0820 H         1 UNK         0.0873 
     77 H77        29.8626   23.1064    0.7141 H         1 UNK         0.0745 
     78 H78        29.5392   21.4020    0.6162 H         1 UNK         0.0745 
     79 H79        31.7552   20.8713    3.6066 H         1 UNK         0.0705 
     80 H80        31.3825   20.5230    1.9412 H         1 UNK         0.0705 
     81 H81        33.2210   22.7056    4.2227 H         1 UNK         0.1334 
     82 H82        35.2154   24.8827    1.1084 H         1 UNK         0.1417 
     83 H83        32.0239   22.1967    0.1374 H         1 UNK         0.1562 
     84 H84        33.2562   23.2466   -1.6371 H         1 UNK         0.0748 
     85 H85        34.8132   23.9473   -1.2769 H         1 UNK         0.0748 
     86 H86        31.1417   24.6834   -0.2849 H         1 UNK         0.0940 
     87 H87        30.9237   24.9136   -1.9970 H         1 UNK         0.0940 
     88 H88        30.9143   27.4621   -1.5272 H         1 UNK         0.0703 
     89 H89        28.5602   26.2530   -0.2383 H         1 UNK         0.3081 
     90 H90        26.5463   27.2705   -2.9862 H         1 UNK         0.0719 
     91 H91        26.8903   24.5195   -1.6704 H         1 UNK         0.0809 
     92 H92        25.4643   25.0815   -2.5402 H         1 UNK         0.0809 
     93 H93        26.9777   24.8388   -3.3973 H         1 UNK         0.0809 
     94 H94        25.8466   26.3838   -0.3742 H         1 UNK         0.2990 
     95 H95        26.1410   29.4597    1.3288 H         1 UNK         0.0690 
     96 H96        23.6958   29.1872    1.7169 H         1 UNK         0.0788 
     97 H97        23.5713   28.1625    0.2871 H         1 UNK         0.0788 
     98 H98        24.0327   29.8472    0.1245 H         1 UNK         0.0788 
     99 H99        26.5405   27.7175    2.5915 H         1 UNK         0.2993 
    100 H100       26.6611   25.8055    3.5177 H         1 UNK         0.0949 
    101 H101       24.3249   25.8867    4.4130 H         1 UNK         0.0767 
    102 H102       23.9068   24.4585    3.4758 H         1 UNK         0.0767 
    103 H103       25.0970   24.3516    4.7745 H         1 UNK         0.0767 
    104 H104       25.9404   23.2243    2.6864 H         1 UNK         0.3013 
    105 H105       29.5196   25.9503    1.4341 H         1 UNK         0.3121 
    106 H106       31.2222   27.6024    3.1983 H         1 UNK         0.0774 
    107 H107       30.8341   25.2456    3.8145 H         1 UNK         0.0815 
    108 H108       29.0891   25.4717    3.7596 H         1 UNK         0.0815 
    109 H109       30.0471   26.3007    4.9792 H         1 UNK         0.0815 
    110 H110       30.5282   29.6897    2.6801 H         1 UNK         0.2987 
    111 H111       27.6545   30.4174    2.8280 H         1 UNK         0.0949 
    112 H112       30.1433   32.0367    2.0299 H         1 UNK         0.0806 
    113 H113       29.0893   31.1934    0.9000 H         1 UNK         0.0806 
    114 H114       28.4693   32.5454    1.8214 H         1 UNK         0.0806 
    115 H115       27.5987   32.8821    3.7725 H         1 UNK         0.3010 
    116 H116       27.9202   32.7565    6.5943 H         1 UNK         0.0829 
    117 H117       26.2242   34.1926    5.4835 H         1 UNK         0.0813 
    118 H118       27.2719   35.1705    6.4961 H         1 UNK         0.0813 
    119 H119       27.4945   35.1754    4.7524 H         1 UNK         0.0813 
    120 H120       30.1162   33.7708    4.0753 H         1 UNK         0.3038 
    121 H121       32.1163   34.9013    5.9354 H         1 UNK         0.0769 
    122 H122       32.1814   34.5192    2.8932 H         1 UNK         0.0811 
    123 H123       33.3470   35.4186    3.8540 H         1 UNK         0.0811 
    124 H124       31.6993   36.0026    3.7183 H         1 UNK         0.0811 
    125 H125       31.1629   31.9017    5.6815 H         1 UNK         0.3204 
    126 H126       31.9404   29.9005    6.0363 H         1 UNK         0.0748 
    127 H127       33.6453   30.9314    7.5998 H         1 UNK         0.0771 
    128 H128       34.1773   29.4273    6.8817 H         1 UNK         0.0771 
    129 H129       34.8082   30.9574    6.2796 H         1 UNK         0.0771 
    130 H130       34.6174   28.9236    4.9846 H         1 UNK         0.2980 
    131 H131       33.6205   28.0390    2.4588 H         1 UNK         0.0545 
    132 H132       35.8408   31.2054    1.3912 H         1 UNK         0.3459 
    133 H133       35.1394   31.0402    2.9823 H         1 UNK         0.3459 
    134 H134       35.7088   26.7029    2.3654 H         1 UNK         0.0616 
    135 H135       36.3656   27.5788    3.7212 H         1 UNK         0.0616 
    136 H136       36.2622   24.5765    3.4066 H         1 UNK         0.0634 
    137 H137       35.3568   23.7817    4.6635 H         1 UNK         0.0634 
@<TRIPOS>BOND
     1    1    2 1    
     2    1   72 1    
     3    1   73 1    
     4    1   74 1    
     5    2    3 2    
     6    2    4 am   BACKBONE|DICT|INTERRES
     7    4    5 1    
     8    4   75 1    
     9    5    6 1    
    10    5   35 1    
    11    5   76 1    
    12    6    7 1    
    13    6   77 1    
    14    6   78 1    
    15    7    8 1    
    16    8    9 1    
    17    8   79 1    
    18    8   80 1    
    19    9   10 ar   
    20    9   14 ar   
    21   10   11 ar   
    22   10   81 1    
    23   11   12 ar   
    24   11   71 1    
    25   12   13 ar   
    26   12   82 1    
    27   13   14 ar   
    28   13   15 1    
    29   14   83 1    
    30   15   16 1    
    31   15   84 1    
    32   15   85 1    
    33   16   17 1    
    34   17   18 1    
    35   17   86 1    
    36   17   87 1    
    37   18   19 1    
    38   18   37 1    
    39   18   88 1    
    40   19   20 am   BACKBONE|DICT|INTERRES
    41   19   89 1    
    42   20   21 2    
    43   20   22 1    
    44   22   23 1    
    45   22   24 1    
    46   22   90 1    
    47   23   91 1    
    48   23   92 1    
    49   23   93 1    
    50   24   25 am   BACKBONE|DICT|INTERRES
    51   24   94 1    
    52   25   26 2    
    53   25   27 1    
    54   27   28 1    
    55   27   29 1    
    56   27   95 1    
    57   28   96 1    
    58   28   97 1    
    59   28   98 1    
    60   29   30 am   BACKBONE|DICT|INTERRES
    61   29   99 1    
    62   30   31 2    
    63   30   32 1    
    64   32   33 1    
    65   32   34 1    
    66   32  100 1    
    67   33  101 1    
    68   33  102 1    
    69   33  103 1    
    70   34   35 am   BACKBONE|DICT|INTERRES
    71   34  104 1    
    72   35   36 2    
    73   37   38 2    
    74   37   39 am   BACKBONE|DICT|INTERRES
    75   39   40 1    
    76   39  105 1    
    77   40   41 1    
    78   40   42 1    
    79   40  106 1    
    80   41  107 1    
    81   41  108 1    
    82   41  109 1    
    83   42   43 2    
    84   42   44 am   BACKBONE|DICT|INTERRES
    85   44   45 1    
    86   44  110 1    
    87   45   46 1    
    88   45   47 1    
    89   45  111 1    
    90   46  112 1    
    91   46  113 1    
    92   46  114 1    
    93   47   48 2    
    94   47   49 am   BACKBONE|DICT|INTERRES
    95   49   50 1    
    96   49  115 1    
    97   50   51 1    
    98   50   52 1    
    99   50  116 1    
   100   51  117 1    
   101   51  118 1    
   102   51  119 1    
   103   52   53 2    
   104   52   54 am   BACKBONE|DICT|INTERRES
   105   54   55 1    
   106   54  120 1    
   107   55   56 1    
   108   55   57 1    
   109   55  121 1    
   110   56  122 1    
   111   56  123 1    
   112   56  124 1    
   113   57   58 2    
   114   57   59 am   BACKBONE|DICT|INTERRES
   115   59   60 1    
   116   59  125 1    
   117   60   61 1    
   118   60   62 1    
   119   60  126 1    
   120   61  127 1    
   121   61  128 1    
   122   61  129 1    
   123   62   63 2    
   124   62   64 am   BACKBONE|DICT|INTERRES
   125   64   65 1    
   126   64  130 1    
   127   65   66 1    
   128   65   69 1    
   129   65  131 1    
   130   66   67 am   BACKBONE|DICT|INTERRES
   131   66   68 2    
   132   67  132 1    
   133   67  133 1    
   134   69   70 1    
   135   69  134 1    
   136   69  135 1    
   137   70   71 1    
   138   71  136 1    
   139   71  137 1    
@<TRIPOS>SUBSTRUCTURE
     1 UNK         1 GROUP             0       ****    0 ROOT    
