@<TRIPOS>MOLECULE
3R136
137   139    1
SMALL
USER_CHARGES


@<TRIPOS>ATOM
      1 CA         28.4517   16.9643   -0.3324 C.3       0 UNK        -0.1979 
      2 C          29.4709   18.0932   -0.3723 C.2       0 UNK         0.4864 
      3 O          30.4676   17.9921   -1.0888 O.2       0 UNK        -0.5359 
      4 N          29.2291   19.1668    0.3924 N.am      1 UNK        -0.4318 
      5 CA         30.0822   20.3602    0.4678 C.3       1 UNK         0.0824 
      6 C6         29.7780   21.2072    1.7306 C.3       12 UNK        -0.0944 
      7 S7         28.0242   21.7010    1.8757 S.3       12 UNK        -0.2672 
      8 C8         28.1144   23.4885    1.5559 C.3       12 UNK         0.0333 
      9 C9         28.1629   24.2890    2.8483 C.ar      12 UNK        -0.0807 
     10 C10        29.3766   24.5318    3.4990 C.ar      12 UNK        -0.0894 
     11 C11        29.4106   25.2836    4.6788 C.ar      12 UNK        -0.0804 
     12 C12        28.2196   25.7971    5.2052 C.ar      12 UNK        -0.0824 
     13 C13        27.0047   25.5884    4.5422 C.ar      12 UNK        -0.0762 
     14 C14        26.9826   24.8165    3.3775 C.ar      12 UNK        -0.0782 
     15 C15        25.7181   26.2304    5.0448 C.3       12 UNK         0.0230 
     16 S16        25.0851   27.4795    3.8694 S.3       12 UNK        -0.2608 
     17 C17        26.2538   28.8622    4.1019 C.3       12 UNK        -0.0989 
     18 CA         27.5367   28.7251    3.2396 C.3       5 UNK         0.0716 
     19 N          27.2561   28.6957    1.8009 N.am      5 UNK        -0.4135 
     20 C          28.0920   28.1699    0.8974 C.2       4 UNK         0.5031 
     21 O          29.1609   27.6306    1.1928 O.2       4 UNK        -0.5229 
     22 CA         27.6740   28.2870   -0.5826 C.3       4 UNK         0.0329 
     23 CB         27.7843   29.7439   -1.0661 C.3       4 UNK        -0.2001 
     24 N          28.5158   27.4441   -1.4369 N.am      4 UNK        -0.4303 
     25 C          28.4641   26.1061   -1.4637 C.2       3 UNK         0.5044 
     26 O          27.5535   25.4495   -0.9540 O.2       3 UNK        -0.5152 
     27 CA         29.6626   25.4076   -2.1374 C.3       3 UNK         0.0319 
     28 CB         30.9665   25.7085   -1.3734 C.3       3 UNK        -0.2001 
     29 N          29.5170   23.9533   -2.2157 N.am      3 UNK        -0.4354 
     30 C          28.6676   23.2801   -2.9972 C.2       2 UNK         0.4964 
     31 O          27.9037   23.8230   -3.7971 O.2       2 UNK        -0.5047 
     32 CA         28.6717   21.7396   -2.9010 C.3       2 UNK         0.0288 
     33 CB         29.6114   21.1341   -3.9622 C.3       2 UNK        -0.2113 
     34 N          28.9443   21.1574   -1.5738 N.am      2 UNK        -0.4145 
     35 C          30.0593   21.2091   -0.8245 C.2       1 UNK         0.5006 
     36 O          31.0494   21.8838   -1.1112 O.2       1 UNK        -0.5103 
     37 C          28.5861   29.7933    3.6061 C.2       5 UNK         0.5055 
     38 O          28.9151   30.6619    2.7910 O.2       5 UNK        -0.5220 
     39 N          29.0754   29.7127    4.8530 N.am      6 UNK        -0.4450 
     40 CA         30.1609   30.5124    5.4327 C.3       6 UNK         0.0367 
     41 CB         30.3478   30.1175    6.9060 C.3       6 UNK        -0.1929 
     42 C          30.0046   32.0375    5.3128 C.2       6 UNK         0.5070 
     43 O          31.0147   32.7353    5.2491 O.2       6 UNK        -0.5237 
     44 N          28.7603   32.5277    5.2297 N.am      7 UNK        -0.4739 
     45 CA         28.4291   33.9314    4.9624 C.3       7 UNK         0.0276 
     46 CB         26.9050   34.1122    5.0475 C.3       7 UNK        -0.1927 
     47 C          28.9582   34.4555    3.6111 C.2       7 UNK         0.5013 
     48 O          29.1745   35.6617    3.4858 O.2       7 UNK        -0.5193 
     49 N          29.1632   33.5525    2.6419 N.am      8 UNK        -0.4253 
     50 CA         29.7522   33.8423    1.3356 C.3       8 UNK         0.0242 
     51 CB         28.7597   33.4365    0.2331 C.3       8 UNK        -0.2000 
     52 C          31.0907   33.1124    1.1459 C.2       8 UNK         0.4948 
     53 O          32.0380   33.7204    0.6469 O.2       8 UNK        -0.5275 
     54 N          31.1484   31.8258    1.5180 N.am      9 UNK        -0.4246 
     55 CA         32.2681   30.9299    1.2102 C.3       9 UNK         0.0261 
     56 CB         31.7086   29.5219    0.9572 C.3       9 UNK        -0.1959 
     57 C          33.3581   30.8647    2.2922 C.2       9 UNK         0.5033 
     58 O          34.3524   30.1701    2.0748 O.2       9 UNK        -0.5390 
     59 N          33.1560   31.5171    3.4467 N.am      10 UNK        -0.4215 
     60 CA         33.9971   31.5102    4.6574 C.3       10 UNK         0.0240 
     61 CB         35.4184   32.0367    4.3745 C.3       10 UNK        -0.1982 
     62 C          34.0414   30.1640    5.4103 C.2       10 UNK         0.4970 
     63 O          33.9969   30.1765    6.6409 O.2       10 UNK        -0.4916 
     64 N          34.1153   29.0455    4.6766 N.am      11 UNK        -0.4279 
     65 CA         34.2458   27.6652    5.1755 C.3       11 UNK         0.1003 
     66 C          35.5724   27.4306    5.9672 C.2       11 UNK         0.5709 
     67 N          35.6773   26.3637    6.7493 N.am      11 UNK        -0.7358 
     68 O          36.5423   28.1762    5.8361 O.2       11 UNK        -0.4999 
     69 C69        32.9639   27.1664    5.9117 C.3       12 UNK        -0.0954 
     70 S70        31.5005   27.0975    4.8214 S.3       12 UNK        -0.2268 
     71 C71        30.7342   25.5438    5.3829 C.3       12 UNK         0.0203 
     72 H72        27.6249   17.1847    0.3427 H         1 UNK         0.0888 
     73 H73        28.0411   16.7942   -1.3273 H         1 UNK         0.0888 
     74 H74        28.9262   16.0425    0.0030 H         1 UNK         0.0888 
     75 H75        28.3991   19.1951    0.9690 H         1 UNK         0.3017 
     76 H76        31.1107   20.0054    0.5674 H         1 UNK         0.0873 
     77 H77        30.0253   20.6255    2.6199 H         1 UNK         0.0745 
     78 H78        30.4271   22.0834    1.7735 H         1 UNK         0.0745 
     79 H79        27.2283   23.7675    0.9851 H         1 UNK         0.0705 
     80 H80        28.9677   23.7313    0.9210 H         1 UNK         0.0705 
     81 H81        30.2956   24.1409    3.0853 H         1 UNK         0.1334 
     82 H82        28.2461   26.3872    6.1109 H         1 UNK         0.1417 
     83 H83        26.0442   24.6538    2.8646 H         1 UNK         0.1562 
     84 H84        25.8591   26.6856    6.0263 H         1 UNK         0.0748 
     85 H85        24.9625   25.4541    5.1736 H         1 UNK         0.0748 
     86 H86        26.4880   28.9238    5.1660 H         1 UNK         0.0940 
     87 H87        25.7339   29.7909    3.8590 H         1 UNK         0.0940 
     88 H88        28.0107   27.7768    3.4806 H         1 UNK         0.0703 
     89 H89        26.4058   29.1442    1.4958 H         1 UNK         0.3081 
     90 H90        26.6369   27.9576   -0.6762 H         1 UNK         0.0719 
     91 H91        28.7983   30.1307   -0.9568 H         1 UNK         0.0809 
     92 H92        27.5014   29.8366   -2.1149 H         1 UNK         0.0809 
     93 H93        27.1235   30.3996   -0.4981 H         1 UNK         0.0809 
     94 H94        29.3124   27.8977   -1.8585 H         1 UNK         0.2990 
     95 H95        29.7505   25.7949   -3.1544 H         1 UNK         0.0690 
     96 H96        31.8209   25.2103   -1.8324 H         1 UNK         0.0788 
     97 H97        30.9053   25.3793   -0.3347 H         1 UNK         0.0788 
     98 H98        31.1894   26.7759   -1.3601 H         1 UNK         0.0788 
     99 H99        30.1368   23.3978   -1.6328 H         1 UNK         0.2993 
    100 H100       27.6568   21.4242   -3.1492 H         1 UNK         0.0949 
    101 H101       30.6523   21.4085   -3.7872 H         1 UNK         0.0767 
    102 H102       29.5492   20.0457   -3.9717 H         1 UNK         0.0767 
    103 H103       29.3480   21.4828   -4.9618 H         1 UNK         0.0767 
    104 H104       28.1853   20.6081   -1.1954 H         1 UNK         0.3013 
    105 H105       28.7411   28.9619    5.4383 H         1 UNK         0.3121 
    106 H106       31.0668   30.2382    4.8909 H         1 UNK         0.0774 
    107 H107       31.1881   30.6544    7.3491 H         1 UNK         0.0815 
    108 H108       29.4632   30.3470    7.5013 H         1 UNK         0.0815 
    109 H109       30.5585   29.0538    7.0129 H         1 UNK         0.0815 
    110 H110       27.9885   31.8804    5.2911 H         1 UNK         0.2987 
    111 H111       28.8933   34.5350    5.7454 H         1 UNK         0.0949 
    112 H112       26.6257   35.1535    4.8799 H         1 UNK         0.0806 
    113 H113       26.3848   33.5114    4.3003 H         1 UNK         0.0806 
    114 H114       26.5251   33.8320    6.0302 H         1 UNK         0.0806 
    115 H115       28.9603   32.5767    2.8411 H         1 UNK         0.3010 
    116 H116       29.9500   34.9115    1.2331 H         1 UNK         0.0829 
    117 H117       27.8388   34.0158    0.3000 H         1 UNK         0.0813 
    118 H118       29.1809   33.6097   -0.7582 H         1 UNK         0.0813 
    119 H119       28.4945   32.3810    0.2981 H         1 UNK         0.0813 
    120 H120       30.3232   31.3895    1.9266 H         1 UNK         0.3038 
    121 H121       32.7528   31.2638    0.2902 H         1 UNK         0.0769 
    122 H122       32.4926   28.8330    0.6403 H         1 UNK         0.0811 
    123 H123       30.9526   29.5279    0.1728 H         1 UNK         0.0811 
    124 H124       31.2569   29.1048    1.8583 H         1 UNK         0.0811 
    125 H125       32.2975   32.0462    3.5416 H         1 UNK         0.3204 
    126 H126       33.5326   32.2231    5.3392 H         1 UNK         0.0748 
    127 H127       35.9805   32.1477    5.3027 H         1 UNK         0.0771 
    128 H128       35.9882   31.3623    3.7348 H         1 UNK         0.0771 
    129 H129       35.3907   33.0143    3.8932 H         1 UNK         0.0771 
    130 H130       34.2087   29.1660    3.6722 H         1 UNK         0.2980 
    131 H131       34.3629   27.0549    4.2797 H         1 UNK         0.0545 
    132 H132       36.5427   26.2033    7.2407 H         1 UNK         0.3459 
    133 H133       34.9126   25.7171    6.8578 H         1 UNK         0.3459 
    134 H134       33.1168   26.1640    6.3118 H         1 UNK         0.0616 
    135 H135       32.7350   27.7994    6.7696 H         1 UNK         0.0616 
    136 H136       31.4226   24.7164    5.2036 H         1 UNK         0.0634 
    137 H137       30.5780   25.5889    6.4619 H         1 UNK         0.0634 
@<TRIPOS>BOND
     1    1    2 1    
     2    1   72 1    
     3    1   73 1    
     4    1   74 1    
     5    2    3 2    
     6    2    4 am   BACKBONE|DICT|INTERRES
     7    4    5 1    
     8    4   75 1    
     9    5    6 1    
    10    5   35 1    
    11    5   76 1    
    12    6    7 1    
    13    6   77 1    
    14    6   78 1    
    15    7    8 1    
    16    8    9 1    
    17    8   79 1    
    18    8   80 1    
    19    9   10 ar   
    20    9   14 ar   
    21   10   11 ar   
    22   10   81 1    
    23   11   12 ar   
    24   11   71 1    
    25   12   13 ar   
    26   12   82 1    
    27   13   14 ar   
    28   13   15 1    
    29   14   83 1    
    30   15   16 1    
    31   15   84 1    
    32   15   85 1    
    33   16   17 1    
    34   17   18 1    
    35   17   86 1    
    36   17   87 1    
    37   18   19 1    
    38   18   37 1    
    39   18   88 1    
    40   19   20 am   BACKBONE|DICT|INTERRES
    41   19   89 1    
    42   20   21 2    
    43   20   22 1    
    44   22   23 1    
    45   22   24 1    
    46   22   90 1    
    47   23   91 1    
    48   23   92 1    
    49   23   93 1    
    50   24   25 am   BACKBONE|DICT|INTERRES
    51   24   94 1    
    52   25   26 2    
    53   25   27 1    
    54   27   28 1    
    55   27   29 1    
    56   27   95 1    
    57   28   96 1    
    58   28   97 1    
    59   28   98 1    
    60   29   30 am   BACKBONE|DICT|INTERRES
    61   29   99 1    
    62   30   31 2    
    63   30   32 1    
    64   32   33 1    
    65   32   34 1    
    66   32  100 1    
    67   33  101 1    
    68   33  102 1    
    69   33  103 1    
    70   34   35 am   BACKBONE|DICT|INTERRES
    71   34  104 1    
    72   35   36 2    
    73   37   38 2    
    74   37   39 am   BACKBONE|DICT|INTERRES
    75   39   40 1    
    76   39  105 1    
    77   40   41 1    
    78   40   42 1    
    79   40  106 1    
    80   41  107 1    
    81   41  108 1    
    82   41  109 1    
    83   42   43 2    
    84   42   44 am   BACKBONE|DICT|INTERRES
    85   44   45 1    
    86   44  110 1    
    87   45   46 1    
    88   45   47 1    
    89   45  111 1    
    90   46  112 1    
    91   46  113 1    
    92   46  114 1    
    93   47   48 2    
    94   47   49 am   BACKBONE|DICT|INTERRES
    95   49   50 1    
    96   49  115 1    
    97   50   51 1    
    98   50   52 1    
    99   50  116 1    
   100   51  117 1    
   101   51  118 1    
   102   51  119 1    
   103   52   53 2    
   104   52   54 am   BACKBONE|DICT|INTERRES
   105   54   55 1    
   106   54  120 1    
   107   55   56 1    
   108   55   57 1    
   109   55  121 1    
   110   56  122 1    
   111   56  123 1    
   112   56  124 1    
   113   57   58 2    
   114   57   59 am   BACKBONE|DICT|INTERRES
   115   59   60 1    
   116   59  125 1    
   117   60   61 1    
   118   60   62 1    
   119   60  126 1    
   120   61  127 1    
   121   61  128 1    
   122   61  129 1    
   123   62   63 2    
   124   62   64 am   BACKBONE|DICT|INTERRES
   125   64   65 1    
   126   64  130 1    
   127   65   66 1    
   128   65   69 1    
   129   65  131 1    
   130   66   67 am   BACKBONE|DICT|INTERRES
   131   66   68 2    
   132   67  132 1    
   133   67  133 1    
   134   69   70 1    
   135   69  134 1    
   136   69  135 1    
   137   70   71 1    
   138   71  136 1    
   139   71  137 1    
@<TRIPOS>SUBSTRUCTURE
     1 UNK         1 GROUP             0       ****    0 ROOT    
