@<TRIPOS>MOLECULE
3R136
137   139    1
SMALL
USER_CHARGES


@<TRIPOS>ATOM
      1 CA         26.4917   26.7616   -2.5246 C.3       0 UNK        -0.1979 
      2 C          27.1561   25.7742   -1.5794 C.2       0 UNK         0.4864 
      3 O          26.7377   25.6611   -0.4250 O.2       0 UNK        -0.5359 
      4 N          28.1712   25.0420   -2.0558 N.am      1 UNK        -0.4318 
      5 CA         29.0025   24.0795   -1.3128 C.3       1 UNK         0.0824 
      6 C6         30.3347   23.8163   -2.0641 C.3       12 UNK        -0.0944 
      7 S7         31.4141   25.2856   -2.0704 S.3       12 UNK        -0.2672 
      8 C8         32.7834   24.7479   -0.9938 C.3       12 UNK         0.0333 
      9 C9         32.4669   24.8950    0.4908 C.ar      12 UNK        -0.0807 
     10 C10        33.0772   25.9072    1.2381 C.ar      12 UNK        -0.0894 
     11 C11        32.8670   26.0024    2.6171 C.ar      12 UNK        -0.0804 
     12 C12        31.9998   25.1005    3.2438 C.ar      12 UNK        -0.0824 
     13 C13        31.3689   24.0920    2.5057 C.ar      12 UNK        -0.0762 
     14 C14        31.6225   23.9853    1.1359 C.ar      12 UNK        -0.0782 
     15 C15        30.4536   23.0806    3.1877 C.3       12 UNK         0.0230 
     16 S16        28.6859   23.4232    2.8906 S.3       12 UNK        -0.2608 
     17 C17        28.4735   24.9860    3.8031 C.3       12 UNK        -0.0989 
     18 CA         28.3363   26.1832    2.8237 C.3       5 UNK         0.0716 
     19 N          26.9885   26.3215    2.2542 N.am      5 UNK        -0.4135 
     20 C          25.8845   26.7337    2.8992 C.2       4 UNK         0.5031 
     21 O          25.8191   26.9281    4.1133 O.2       4 UNK        -0.5229 
     22 CA         24.6419   27.0032    2.0432 C.3       4 UNK         0.0329 
     23 CB         24.8287   28.2804    1.2042 C.3       4 UNK        -0.2001 
     24 N          24.3423   25.8778    1.1587 N.am      4 UNK        -0.4303 
     25 C          23.1927   25.1903    1.1648 C.2       3 UNK         0.5044 
     26 O          22.2625   25.4061    1.9432 O.2       3 UNK        -0.5152 
     27 CA         23.0325   24.0841    0.1089 C.3       3 UNK         0.0319 
     28 CB         22.4506   24.6675   -1.1893 C.3       3 UNK        -0.2001 
     29 N          24.2771   23.3784   -0.1987 N.am      3 UNK        -0.4354 
     30 C          24.8831   22.5041    0.6185 C.2       2 UNK         0.4964 
     31 O          24.4796   22.2138    1.7444 O.2       2 UNK        -0.5047 
     32 CA         26.1570   21.8507    0.0749 C.3       2 UNK         0.0288 
     33 CB         25.8034   20.7923   -0.9921 C.3       2 UNK        -0.2113 
     34 N          27.0315   22.8963   -0.4519 N.am      2 UNK        -0.4145 
     35 C          28.2662   22.7658   -0.9419 C.2       1 UNK         0.5006 
     36 O          28.8276   21.6778   -1.0845 O.2       1 UNK        -0.5103 
     37 C          28.8144   27.5242    3.4192 C.2       5 UNK         0.5055 
     38 O          29.0730   27.6210    4.6193 O.2       5 UNK        -0.5220 
     39 N          28.8828   28.5428    2.5535 N.am      6 UNK        -0.4450 
     40 CA         29.3398   29.8960    2.8755 C.3       6 UNK         0.0367 
     41 CB         28.1238   30.7818    3.2058 C.3       6 UNK        -0.1929 
     42 C          30.1951   30.4817    1.7377 C.2       6 UNK         0.5070 
     43 O          30.3611   31.6992    1.6709 O.2       6 UNK        -0.5237 
     44 N          30.7242   29.6227    0.8521 N.am      7 UNK        -0.4739 
     45 CA         31.4355   30.0104   -0.3725 C.3       7 UNK         0.0276 
     46 CB         31.6774   28.7622   -1.2332 C.3       7 UNK        -0.1927 
     47 C          32.7543   30.7664   -0.1347 C.2       7 UNK         0.5013 
     48 O          33.1197   31.6071   -0.9568 O.2       7 UNK        -0.5193 
     49 N          33.4265   30.4748    0.9863 N.am      8 UNK        -0.4253 
     50 CA         34.6366   31.1689    1.4370 C.3       8 UNK         0.0242 
     51 CB         35.6359   30.1314    1.9806 C.3       8 UNK        -0.2000 
     52 C          34.3304   32.2424    2.4988 C.2       8 UNK         0.4948 
     53 O          35.2715   32.7797    3.0862 O.2       8 UNK        -0.5275 
     54 N          33.0413   32.5158    2.7624 N.am      9 UNK        -0.4246 
     55 CA         32.4782   33.3837    3.8054 C.3       9 UNK         0.0261 
     56 CB         32.9119   34.8534    3.6343 C.3       9 UNK        -0.1959 
     57 C          32.7466   32.8678    5.2288 C.2       9 UNK         0.5033 
     58 O          31.7998   32.5579    5.9526 O.2       9 UNK        -0.5390 
     59 N          34.0262   32.7369    5.5949 N.am      10 UNK        -0.4215 
     60 CA         34.5147   32.2309    6.8794 C.3       10 UNK         0.0240 
     61 CB         35.9105   32.8262    7.1443 C.3       10 UNK        -0.1982 
     62 C          34.5033   30.6890    6.9434 C.2       10 UNK         0.4970 
     63 O          35.4944   30.0822    7.3535 O.2       10 UNK        -0.4916 
     64 N          33.3848   30.0814    6.5324 N.am      11 UNK        -0.4279 
     65 CA         33.1554   28.6283    6.5543 C.3       11 UNK         0.1003 
     66 C          32.7713   28.0647    7.9535 C.2       11 UNK         0.5709 
     67 N          32.4854   28.8909    8.9536 N.am      11 UNK        -0.7358 
     68 O          32.7469   26.8504    8.1392 O.2       11 UNK        -0.4999 
     69 C69        32.1254   28.2000    5.4774 C.3       12 UNK        -0.0954 
     70 S70        32.6964   28.5354    3.7785 S.3       12 UNK        -0.2268 
     71 C71        33.6494   27.0259    3.4298 C.3       12 UNK         0.0203 
     72 H72        25.4318   26.5302   -2.6242 H         1 UNK         0.0888 
     73 H73        26.5841   27.7735   -2.1314 H         1 UNK         0.0888 
     74 H74        26.9401   26.7403   -3.5176 H         1 UNK         0.0888 
     75 H75        28.4480   25.1752   -3.0180 H         1 UNK         0.3017 
     76 H76        29.2471   24.5435   -0.3549 H         1 UNK         0.0873 
     77 H77        30.8907   22.9822   -1.6355 H         1 UNK         0.0745 
     78 H78        30.1365   23.5267   -3.0975 H         1 UNK         0.0745 
     79 H79        33.0549   23.7151   -1.2166 H         1 UNK         0.0705 
     80 H80        33.6619   25.3430   -1.2477 H         1 UNK         0.0705 
     81 H81        33.7557   26.5960    0.7536 H         1 UNK         0.1334 
     82 H82        31.8396   25.1650    4.3108 H         1 UNK         0.1417 
     83 H83        31.1668   23.1790    0.5807 H         1 UNK         0.1562 
     84 H84        30.6427   23.0501    4.2619 H         1 UNK         0.0748 
     85 H85        30.6812   22.0805    2.8155 H         1 UNK         0.0748 
     86 H86        29.3262   25.1068    4.4726 H         1 UNK         0.0940 
     87 H87        27.6030   24.9068    4.4556 H         1 UNK         0.0940 
     88 H88        29.0052   26.0011    1.9802 H         1 UNK         0.0703 
     89 H89        26.9230   26.1552    1.2514 H         1 UNK         0.3081 
     90 H90        23.8132   27.1796    2.7324 H         1 UNK         0.0719 
     91 H91        25.6237   28.1727    0.4655 H         1 UNK         0.0809 
     92 H92        23.9132   28.5364    0.6708 H         1 UNK         0.0809 
     93 H93        25.0829   29.1314    1.8378 H         1 UNK         0.0809 
     94 H94        25.0633   25.6268    0.4899 H         1 UNK         0.2990 
     95 H95        22.3198   23.3554    0.5015 H         1 UNK         0.0690 
     96 H96        22.2494   23.8852   -1.9214 H         1 UNK         0.0788 
     97 H97        23.1258   25.3919   -1.6466 H         1 UNK         0.0788 
     98 H98        21.5062   25.1790   -0.9975 H         1 UNK         0.0788 
     99 H99        24.6628   23.5247   -1.1201 H         1 UNK         0.2993 
    100 H100       26.6701   21.3645    0.9075 H         1 UNK         0.0949 
    101 H101       25.0573   20.0917   -0.6143 H         1 UNK         0.0767 
    102 H102       25.3972   21.2467   -1.8964 H         1 UNK         0.0767 
    103 H103       26.6729   20.2012   -1.2781 H         1 UNK         0.0767 
    104 H104       26.7057   23.8525   -0.3271 H         1 UNK         0.3013 
    105 H105       28.5983   28.3887    1.5961 H         1 UNK         0.3121 
    106 H106       29.9868   29.8669    3.7540 H         1 UNK         0.0774 
    107 H107       27.4595   30.8884    2.3476 H         1 UNK         0.0815 
    108 H108       28.4356   31.7828    3.5070 H         1 UNK         0.0815 
    109 H109       27.5436   30.3650    4.0294 H         1 UNK         0.0815 
    110 H110       30.6135   28.6326    1.0142 H         1 UNK         0.2987 
    111 H111       30.7807   30.6836   -0.9305 H         1 UNK         0.0949 
    112 H112       32.1800   29.0202   -2.1665 H         1 UNK         0.0806 
    113 H113       32.3022   28.0316   -0.7195 H         1 UNK         0.0806 
    114 H114       30.7390   28.2749   -1.4987 H         1 UNK         0.0806 
    115 H115       33.0439   29.7766    1.6105 H         1 UNK         0.3010 
    116 H116       35.1100   31.6784    0.5952 H         1 UNK         0.0829 
    117 H117       35.8058   29.3262    1.2657 H         1 UNK         0.0813 
    118 H118       36.6037   30.5927    2.1814 H         1 UNK         0.0813 
    119 H119       35.2932   29.6884    2.9155 H         1 UNK         0.0813 
    120 H120       32.3384   32.0371    2.2091 H         1 UNK         0.3038 
    121 H121       31.3969   33.3498    3.6616 H         1 UNK         0.0769 
    122 H122       33.9858   34.9891    3.7636 H         1 UNK         0.0811 
    123 H123       32.4162   35.4907    4.3676 H         1 UNK         0.0811 
    124 H124       32.6453   35.2295    2.6466 H         1 UNK         0.0811 
    125 H125       34.7225   32.9120    4.8724 H         1 UNK         0.3204 
    126 H126       33.8487   32.5851    7.6690 H         1 UNK         0.0748 
    127 H127       36.2884   32.5247    8.1222 H         1 UNK         0.0771 
    128 H128       36.6353   32.4998    6.3970 H         1 UNK         0.0771 
    129 H129       35.8851   33.9160    7.1325 H         1 UNK         0.0771 
    130 H130       32.6085   30.6608    6.2354 H         1 UNK         0.2980 
    131 H131       34.1009   28.1436    6.3045 H         1 UNK         0.0545 
    132 H132       32.2452   28.5089    9.8548 H         1 UNK         0.3459 
    133 H133       32.4997   29.8881    8.8152 H         1 UNK         0.3459 
    134 H134       31.8806   27.1402    5.5580 H         1 UNK         0.0616 
    135 H135       31.1897   28.7375    5.6345 H         1 UNK         0.0616 
    136 H136       34.5539   27.3109    2.8908 H         1 UNK         0.0634 
    137 H137       33.9947   26.5741    4.3607 H         1 UNK         0.0634 
@<TRIPOS>BOND
     1    1    2 1    
     2    1   72 1    
     3    1   73 1    
     4    1   74 1    
     5    2    3 2    
     6    2    4 am   BACKBONE|DICT|INTERRES
     7    4    5 1    
     8    4   75 1    
     9    5    6 1    
    10    5   35 1    
    11    5   76 1    
    12    6    7 1    
    13    6   77 1    
    14    6   78 1    
    15    7    8 1    
    16    8    9 1    
    17    8   79 1    
    18    8   80 1    
    19    9   10 ar   
    20    9   14 ar   
    21   10   11 ar   
    22   10   81 1    
    23   11   12 ar   
    24   11   71 1    
    25   12   13 ar   
    26   12   82 1    
    27   13   14 ar   
    28   13   15 1    
    29   14   83 1    
    30   15   16 1    
    31   15   84 1    
    32   15   85 1    
    33   16   17 1    
    34   17   18 1    
    35   17   86 1    
    36   17   87 1    
    37   18   19 1    
    38   18   37 1    
    39   18   88 1    
    40   19   20 am   BACKBONE|DICT|INTERRES
    41   19   89 1    
    42   20   21 2    
    43   20   22 1    
    44   22   23 1    
    45   22   24 1    
    46   22   90 1    
    47   23   91 1    
    48   23   92 1    
    49   23   93 1    
    50   24   25 am   BACKBONE|DICT|INTERRES
    51   24   94 1    
    52   25   26 2    
    53   25   27 1    
    54   27   28 1    
    55   27   29 1    
    56   27   95 1    
    57   28   96 1    
    58   28   97 1    
    59   28   98 1    
    60   29   30 am   BACKBONE|DICT|INTERRES
    61   29   99 1    
    62   30   31 2    
    63   30   32 1    
    64   32   33 1    
    65   32   34 1    
    66   32  100 1    
    67   33  101 1    
    68   33  102 1    
    69   33  103 1    
    70   34   35 am   BACKBONE|DICT|INTERRES
    71   34  104 1    
    72   35   36 2    
    73   37   38 2    
    74   37   39 am   BACKBONE|DICT|INTERRES
    75   39   40 1    
    76   39  105 1    
    77   40   41 1    
    78   40   42 1    
    79   40  106 1    
    80   41  107 1    
    81   41  108 1    
    82   41  109 1    
    83   42   43 2    
    84   42   44 am   BACKBONE|DICT|INTERRES
    85   44   45 1    
    86   44  110 1    
    87   45   46 1    
    88   45   47 1    
    89   45  111 1    
    90   46  112 1    
    91   46  113 1    
    92   46  114 1    
    93   47   48 2    
    94   47   49 am   BACKBONE|DICT|INTERRES
    95   49   50 1    
    96   49  115 1    
    97   50   51 1    
    98   50   52 1    
    99   50  116 1    
   100   51  117 1    
   101   51  118 1    
   102   51  119 1    
   103   52   53 2    
   104   52   54 am   BACKBONE|DICT|INTERRES
   105   54   55 1    
   106   54  120 1    
   107   55   56 1    
   108   55   57 1    
   109   55  121 1    
   110   56  122 1    
   111   56  123 1    
   112   56  124 1    
   113   57   58 2    
   114   57   59 am   BACKBONE|DICT|INTERRES
   115   59   60 1    
   116   59  125 1    
   117   60   61 1    
   118   60   62 1    
   119   60  126 1    
   120   61  127 1    
   121   61  128 1    
   122   61  129 1    
   123   62   63 2    
   124   62   64 am   BACKBONE|DICT|INTERRES
   125   64   65 1    
   126   64  130 1    
   127   65   66 1    
   128   65   69 1    
   129   65  131 1    
   130   66   67 am   BACKBONE|DICT|INTERRES
   131   66   68 2    
   132   67  132 1    
   133   67  133 1    
   134   69   70 1    
   135   69  134 1    
   136   69  135 1    
   137   70   71 1    
   138   71  136 1    
   139   71  137 1    
@<TRIPOS>SUBSTRUCTURE
     1 UNK         1 GROUP             0       ****    0 ROOT    
