@<TRIPOS>MOLECULE
3R136
137   139    1
SMALL
USER_CHARGES


@<TRIPOS>ATOM
      1 CA         31.2810   28.8868   -3.4568 C.3       0 UNK        -0.1979 
      2 C          30.1239   28.1849   -2.7615 C.2       0 UNK         0.4864 
      3 O          28.9678   28.5402   -2.9933 O.2       0 UNK        -0.5359 
      4 N          30.4273   27.2005   -1.9059 N.am      1 UNK        -0.4318 
      5 CA         29.4428   26.4009   -1.1693 C.3       1 UNK         0.0824 
      6 C6         30.0680   25.6691    0.0432 C.3       12 UNK        -0.0944 
      7 S7         30.9391   26.8102    1.1689 S.3       12 UNK        -0.2672 
      8 C8         32.0559   25.6702    2.0432 C.3       12 UNK         0.0333 
      9 C9         31.4588   25.2353    3.3716 C.ar      12 UNK        -0.0807 
     10 C10        31.8975   25.8303    4.5581 C.ar      12 UNK        -0.0894 
     11 C11        31.3421   25.4599    5.7850 C.ar      12 UNK        -0.0804 
     12 C12        30.3420   24.4862    5.8215 C.ar      12 UNK        -0.0824 
     13 C13        29.8896   23.8871    4.6412 C.ar      12 UNK        -0.0762 
     14 C14        30.4627   24.2539    3.4190 C.ar      12 UNK        -0.0782 
     15 C15        28.7673   22.8571    4.6976 C.3       12 UNK         0.0230 
     16 S16        27.2149   23.4362    3.9267 S.3       12 UNK        -0.2608 
     17 C17        27.0215   25.1292    4.5843 C.3       12 UNK        -0.0989 
     18 CA         27.1581   26.1618    3.4352 C.3       5 UNK         0.0716 
     19 N          25.8681   26.4070    2.7911 N.am      5 UNK        -0.4135 
     20 C          25.6650   26.4971    1.4752 C.2       4 UNK         0.5031 
     21 O          26.5342   26.3160    0.6169 O.2       4 UNK        -0.5229 
     22 CA         24.2461   26.8848    1.0356 C.3       4 UNK         0.0329 
     23 CB         24.2274   28.3190    0.4821 C.3       4 UNK        -0.2001 
     24 N          23.8027   25.9604   -0.0021 N.am      4 UNK        -0.4303 
     25 C          23.2466   24.7629    0.2301 C.2       3 UNK         0.5044 
     26 O          22.8572   24.3853    1.3358 O.2       3 UNK        -0.5152 
     27 CA         23.1465   23.8109   -0.9774 C.3       3 UNK         0.0319 
     28 CB         21.8224   24.0206   -1.7294 C.3       3 UNK        -0.2001 
     29 N          24.2712   23.9805   -1.9041 N.am      3 UNK        -0.4354 
     30 C          25.5447   23.6828   -1.6062 C.2       2 UNK         0.4964 
     31 O          25.8850   23.0797   -0.5875 O.2       2 UNK        -0.5047 
     32 CA         26.6294   24.1798   -2.5686 C.3       2 UNK         0.0288 
     33 CB         26.0957   24.8536   -3.8541 C.3       2 UNK        -0.2113 
     34 N          27.4729   25.1104   -1.8225 N.am      2 UNK        -0.4145 
     35 C          28.7448   25.3983   -2.1089 C.2       1 UNK         0.5006 
     36 O          29.3705   24.8924   -3.0458 O.2       1 UNK        -0.5103 
     37 C          27.7165   27.5047    3.9344 C.2       5 UNK         0.5055 
     38 O          26.9441   28.4053    4.2715 O.2       5 UNK        -0.5220 
     39 N          29.0530   27.6078    3.9495 N.am      6 UNK        -0.4450 
     40 CA         29.8653   28.7893    4.2777 C.3       6 UNK         0.0367 
     41 CB         29.6317   29.2481    5.7313 C.3       6 UNK        -0.1929 
     42 C          29.7403   29.9509    3.2696 C.2       6 UNK         0.5070 
     43 O          30.2734   31.0304    3.5257 O.2       6 UNK        -0.5237 
     44 N          29.0924   29.7168    2.1183 N.am      7 UNK        -0.4739 
     45 CA         28.8932   30.7002    1.0470 C.3       7 UNK         0.0276 
     46 CB         27.8407   30.1714    0.0616 C.3       7 UNK        -0.1927 
     47 C          30.1909   31.0922    0.3156 C.2       7 UNK         0.5013 
     48 O          30.2457   32.1694   -0.2775 O.2       7 UNK        -0.5193 
     49 N          31.2224   30.2406    0.4068 N.am      8 UNK        -0.4253 
     50 CA         32.5900   30.5244   -0.0380 C.3       8 UNK         0.0242 
     51 CB         33.3518   29.1944   -0.1720 C.3       8 UNK        -0.2000 
     52 C          33.3605   31.4828    0.8965 C.2       8 UNK         0.4948 
     53 O          34.4544   31.9072    0.5209 O.2       8 UNK        -0.5275 
     54 N          32.7911   31.7867    2.0756 N.am      9 UNK        -0.4246 
     55 CA         33.3531   32.4972    3.2306 C.3       9 UNK         0.0261 
     56 CB         34.0144   33.8378    2.8495 C.3       9 UNK        -0.1959 
     57 C          34.2980   31.6014    4.0497 C.2       9 UNK         0.5033 
     58 O          34.9908   30.7457    3.4929 O.2       9 UNK        -0.5390 
     59 N          34.2994   31.8253    5.3722 N.am      10 UNK        -0.4215 
     60 CA         35.0064   31.0461    6.3977 C.3       10 UNK         0.0240 
     61 CB         36.5376   31.2229    6.2649 C.3       10 UNK        -0.1982 
     62 C          34.5404   29.5733    6.4289 C.2       10 UNK         0.4970 
     63 O          33.3734   29.3023    6.1375 O.2       10 UNK        -0.4916 
     64 N          35.4387   28.6578    6.8031 N.am      11 UNK        -0.4279 
     65 CA         35.2197   27.2091    6.8454 C.3       11 UNK         0.1003 
     66 C          36.5690   26.4478    6.7398 C.2       11 UNK         0.5709 
     67 N          36.5320   25.1291    6.6146 N.am      11 UNK        -0.7358 
     68 O          37.6487   27.0380    6.7723 O.2       11 UNK        -0.4999 
     69 C69        34.3592   26.7769    8.0699 C.3       12 UNK        -0.0954 
     70 S70        33.3152   25.3271    7.7043 S.3       12 UNK        -0.2268 
     71 C71        31.8112   26.1275    7.0665 C.3       12 UNK         0.0203 
     72 H72        32.2326   28.3900   -3.2694 H         1 UNK         0.0888 
     73 H73        31.1171   28.9036   -4.5339 H         1 UNK         0.0888 
     74 H74        31.3575   29.9159   -3.1068 H         1 UNK         0.0888 
     75 H75        31.3896   26.9274   -1.7741 H         1 UNK         0.3017 
     76 H76        28.6811   27.0822   -0.7887 H         1 UNK         0.0873 
     77 H77        29.2944   25.1523    0.6143 H         1 UNK         0.0745 
     78 H78        30.7657   24.9030   -0.3003 H         1 UNK         0.0745 
     79 H79        32.2851   24.7982    1.4296 H         1 UNK         0.0705 
     80 H80        33.0073   26.1792    2.2062 H         1 UNK         0.0705 
     81 H81        32.6652   26.5920    4.5296 H         1 UNK         0.1334 
     82 H82        29.9067   24.2048    6.7708 H         1 UNK         0.1417 
     83 H83        30.1154   23.7912    2.5051 H         1 UNK         0.1562 
     84 H84        28.5560   22.5755    5.7304 H         1 UNK         0.0748 
     85 H85        29.0914   21.9444    4.1958 H         1 UNK         0.0748 
     86 H86        27.7488   25.2985    5.3788 H         1 UNK         0.0940 
     87 H87        26.0493   25.2088    5.0741 H         1 UNK         0.0940 
     88 H88        27.8686   25.7827    2.6964 H         1 UNK         0.0703 
     89 H89        25.1102   26.6409    3.4158 H         1 UNK         0.3081 
     90 H90        23.5652   26.8327    1.8882 H         1 UNK         0.0719 
     91 H91        24.9014   28.4358   -0.3678 H         1 UNK         0.0809 
     92 H92        23.2268   28.6057    0.1582 H         1 UNK         0.0809 
     93 H93        24.5379   29.0340    1.2453 H         1 UNK         0.0809 
     94 H94        24.1168   26.1623   -0.9391 H         1 UNK         0.2990 
     95 H95        23.1680   22.7869   -0.5979 H         1 UNK         0.0690 
     96 H96        20.9704   23.8778   -1.0631 H         1 UNK         0.0788 
     97 H97        21.7141   23.3088   -2.5480 H         1 UNK         0.0788 
     98 H98        21.7458   25.0261   -2.1451 H         1 UNK         0.0788 
     99 H99        24.0794   24.4534   -2.7758 H         1 UNK         0.2993 
    100 H100       27.2212   23.3060   -2.8502 H         1 UNK         0.0949 
    101 H101       26.9147   25.1249   -4.5207 H         1 UNK         0.0767 
    102 H102       25.4456   24.1813   -4.4157 H         1 UNK         0.0767 
    103 H103       25.5384   25.7661   -3.6382 H         1 UNK         0.0767 
    104 H104       27.0600   25.5080   -0.9781 H         1 UNK         0.3013 
    105 H105       29.5920   26.8007    3.6593 H         1 UNK         0.3121 
    106 H106       30.9039   28.4641    4.2092 H         1 UNK         0.0774 
    107 H107       30.3684   29.9974    6.0243 H         1 UNK         0.0815 
    108 H108       28.6455   29.6931    5.8647 H         1 UNK         0.0815 
    109 H109       29.7246   28.4166    6.4295 H         1 UNK         0.0815 
    110 H110       28.7008   28.7981    1.9726 H         1 UNK         0.2987 
    111 H111       28.4998   31.6111    1.5039 H         1 UNK         0.0949 
    112 H112       28.1668   29.2530   -0.4226 H         1 UNK         0.0806 
    113 H113       26.8936   29.9704    0.5619 H         1 UNK         0.0806 
    114 H114       27.6427   30.8989   -0.7267 H         1 UNK         0.0806 
    115 H115       31.0744   29.3653    0.8911 H         1 UNK         0.3010 
    116 H116       32.5425   30.9955   -1.0220 H         1 UNK         0.0829 
    117 H117       32.8428   28.5045   -0.8425 H         1 UNK         0.0813 
    118 H118       34.3524   29.3562   -0.5751 H         1 UNK         0.0813 
    119 H119       33.4680   28.6995    0.7933 H         1 UNK         0.0813 
    120 H120       31.8838   31.3763    2.2677 H         1 UNK         0.3038 
    121 H121       32.4913   32.7256    3.8601 H         1 UNK         0.0769 
    122 H122       34.9550   33.6935    2.3175 H         1 UNK         0.0811 
    123 H123       34.2406   34.4248    3.7403 H         1 UNK         0.0811 
    124 H124       33.3594   34.4410    2.2209 H         1 UNK         0.0811 
    125 H125       33.6749   32.5348    5.7300 H         1 UNK         0.3204 
    126 H126       34.7085   31.4725    7.3567 H         1 UNK         0.0748 
    127 H127       37.0627   30.8312    7.1368 H         1 UNK         0.0771 
    128 H128       36.9324   30.7157    5.3835 H         1 UNK         0.0771 
    129 H129       36.8050   32.2768    6.1854 H         1 UNK         0.0771 
    130 H130       36.3929   28.9371    6.9893 H         1 UNK         0.2980 
    131 H131       34.6811   26.9668    5.9273 H         1 UNK         0.0545 
    132 H132       37.3959   24.6146    6.5456 H         1 UNK         0.3459 
    133 H133       35.6495   24.6402    6.6151 H         1 UNK         0.3459 
    134 H134       34.9885   26.5508    8.9326 H         1 UNK         0.0616 
    135 H135       33.7058   27.5859    8.3995 H         1 UNK         0.0616 
    136 H136       31.9892   27.1850    6.8719 H         1 UNK         0.0634 
    137 H137       31.0338   26.0869    7.8308 H         1 UNK         0.0634 
@<TRIPOS>BOND
     1    1    2 1    
     2    1   72 1    
     3    1   73 1    
     4    1   74 1    
     5    2    3 2    
     6    2    4 am   BACKBONE|DICT|INTERRES
     7    4    5 1    
     8    4   75 1    
     9    5    6 1    
    10    5   35 1    
    11    5   76 1    
    12    6    7 1    
    13    6   77 1    
    14    6   78 1    
    15    7    8 1    
    16    8    9 1    
    17    8   79 1    
    18    8   80 1    
    19    9   10 ar   
    20    9   14 ar   
    21   10   11 ar   
    22   10   81 1    
    23   11   12 ar   
    24   11   71 1    
    25   12   13 ar   
    26   12   82 1    
    27   13   14 ar   
    28   13   15 1    
    29   14   83 1    
    30   15   16 1    
    31   15   84 1    
    32   15   85 1    
    33   16   17 1    
    34   17   18 1    
    35   17   86 1    
    36   17   87 1    
    37   18   19 1    
    38   18   37 1    
    39   18   88 1    
    40   19   20 am   BACKBONE|DICT|INTERRES
    41   19   89 1    
    42   20   21 2    
    43   20   22 1    
    44   22   23 1    
    45   22   24 1    
    46   22   90 1    
    47   23   91 1    
    48   23   92 1    
    49   23   93 1    
    50   24   25 am   BACKBONE|DICT|INTERRES
    51   24   94 1    
    52   25   26 2    
    53   25   27 1    
    54   27   28 1    
    55   27   29 1    
    56   27   95 1    
    57   28   96 1    
    58   28   97 1    
    59   28   98 1    
    60   29   30 am   BACKBONE|DICT|INTERRES
    61   29   99 1    
    62   30   31 2    
    63   30   32 1    
    64   32   33 1    
    65   32   34 1    
    66   32  100 1    
    67   33  101 1    
    68   33  102 1    
    69   33  103 1    
    70   34   35 am   BACKBONE|DICT|INTERRES
    71   34  104 1    
    72   35   36 2    
    73   37   38 2    
    74   37   39 am   BACKBONE|DICT|INTERRES
    75   39   40 1    
    76   39  105 1    
    77   40   41 1    
    78   40   42 1    
    79   40  106 1    
    80   41  107 1    
    81   41  108 1    
    82   41  109 1    
    83   42   43 2    
    84   42   44 am   BACKBONE|DICT|INTERRES
    85   44   45 1    
    86   44  110 1    
    87   45   46 1    
    88   45   47 1    
    89   45  111 1    
    90   46  112 1    
    91   46  113 1    
    92   46  114 1    
    93   47   48 2    
    94   47   49 am   BACKBONE|DICT|INTERRES
    95   49   50 1    
    96   49  115 1    
    97   50   51 1    
    98   50   52 1    
    99   50  116 1    
   100   51  117 1    
   101   51  118 1    
   102   51  119 1    
   103   52   53 2    
   104   52   54 am   BACKBONE|DICT|INTERRES
   105   54   55 1    
   106   54  120 1    
   107   55   56 1    
   108   55   57 1    
   109   55  121 1    
   110   56  122 1    
   111   56  123 1    
   112   56  124 1    
   113   57   58 2    
   114   57   59 am   BACKBONE|DICT|INTERRES
   115   59   60 1    
   116   59  125 1    
   117   60   61 1    
   118   60   62 1    
   119   60  126 1    
   120   61  127 1    
   121   61  128 1    
   122   61  129 1    
   123   62   63 2    
   124   62   64 am   BACKBONE|DICT|INTERRES
   125   64   65 1    
   126   64  130 1    
   127   65   66 1    
   128   65   69 1    
   129   65  131 1    
   130   66   67 am   BACKBONE|DICT|INTERRES
   131   66   68 2    
   132   67  132 1    
   133   67  133 1    
   134   69   70 1    
   135   69  134 1    
   136   69  135 1    
   137   70   71 1    
   138   71  136 1    
   139   71  137 1    
@<TRIPOS>SUBSTRUCTURE
     1 UNK         1 GROUP             0       ****    0 ROOT    
