@<TRIPOS>MOLECULE
3R136
137   139    1
SMALL
USER_CHARGES


@<TRIPOS>ATOM
      1 CA         27.0634   21.1519    0.8108 C.3       0 UNK        -0.1979 
      2 C          27.5354   22.1606   -0.2252 C.2       0 UNK         0.4864 
      3 O          26.7601   22.5431   -1.1021 O.2       0 UNK        -0.5359 
      4 N          28.8035   22.5808   -0.1387 N.am      1 UNK        -0.4318 
      5 CA         29.4512   23.4971   -1.0853 C.3       1 UNK         0.0824 
      6 C6         30.9912   23.5106   -0.9223 C.3       12 UNK        -0.0944 
      7 S7         31.7085   21.8339   -1.0305 S.3       12 UNK        -0.2672 
      8 C8         33.1564   21.9513    0.0735 C.3       12 UNK         0.0333 
      9 C9         32.8150   22.3949    1.4930 C.ar      12 UNK        -0.0807 
     10 C10        33.5288   23.4439    2.0793 C.ar      12 UNK        -0.0894 
     11 C11        33.2452   23.8611    3.3825 C.ar      12 UNK        -0.0804 
     12 C12        32.2247   23.2295    4.1002 C.ar      12 UNK        -0.0824 
     13 C13        31.5069   22.1728    3.5286 C.ar      12 UNK        -0.0762 
     14 C14        31.8124   21.7547    2.2293 C.ar      12 UNK        -0.0782 
     15 C15        30.4272   21.4520    4.3232 C.3       12 UNK         0.0230 
     16 S16        28.7524   21.9751    3.8379 S.3       12 UNK        -0.2608 
     17 C17        28.6507   23.6456    4.5619 C.3       12 UNK        -0.0989 
     18 CA         28.5832   24.7576    3.4784 C.3       5 UNK         0.0716 
     19 N          27.4293   24.6689    2.5753 N.am      5 UNK        -0.4135 
     20 C          26.1319   24.6828    2.9087 C.2       4 UNK         0.5031 
     21 O          25.7128   24.7258    4.0670 O.2       4 UNK        -0.5229 
     22 CA         25.1399   24.6423    1.7288 C.3       4 UNK         0.0329 
     23 CB         23.6754   24.4500    2.1781 C.3       4 UNK        -0.2001 
     24 N          25.2627   25.8051    0.8414 N.am      4 UNK        -0.4303 
     25 C          25.0874   27.0979    1.1547 C.2       3 UNK         0.5044 
     26 O          24.7987   27.5010    2.2820 O.2       3 UNK        -0.5152 
     27 CA         25.2534   28.1041   -0.0016 C.3       3 UNK         0.0319 
     28 CB         25.0722   29.5677    0.4447 C.3       3 UNK        -0.2001 
     29 N          26.5585   27.9543   -0.6512 N.am      3 UNK        -0.4354 
     30 C          26.8163   27.1002   -1.6508 C.2       2 UNK         0.4964 
     31 O          25.9579   26.3623   -2.1382 O.2       2 UNK        -0.5047 
     32 CA         28.2573   27.0063   -2.1952 C.3       2 UNK         0.0288 
     33 CB         29.2554   28.0251   -1.6018 C.3       2 UNK        -0.2113 
     34 N          28.7860   25.6414   -2.0781 N.am      2 UNK        -0.4145 
     35 C          28.8896   24.9248   -0.9485 C.2       1 UNK         0.5006 
     36 O          28.5901   25.3515    0.1705 O.2       1 UNK        -0.5103 
     37 C          28.7090   26.1800    4.0579 C.2       5 UNK         0.5055 
     38 O          28.9175   26.3452    5.2602 O.2       5 UNK        -0.5220 
     39 N          28.5920   27.1841    3.1826 N.am      6 UNK        -0.4450 
     40 CA         28.7801   28.5966    3.4879 C.3       6 UNK         0.0367 
     41 CB         27.5212   29.1879    4.1465 C.3       6 UNK        -0.1929 
     42 C          29.1008   29.3011    2.1714 C.2       6 UNK         0.5070 
     43 O          28.3196   29.1851    1.2280 O.2       6 UNK        -0.5237 
     44 N          30.2299   30.0111    2.1219 N.am      7 UNK        -0.4739 
     45 CA         30.6821   30.7840    0.9615 C.3       7 UNK         0.0276 
     46 CB         32.0461   30.2340    0.5067 C.3       7 UNK        -0.1927 
     47 C          30.7549   32.2871    1.2854 C.2       7 UNK         0.5013 
     48 O          31.4025   33.0331    0.5493 O.2       7 UNK        -0.5193 
     49 N          30.1277   32.7020    2.3985 N.am      8 UNK        -0.4253 
     50 CA         30.0829   34.0424    3.0038 C.3       8 UNK         0.0242 
     51 CB         29.4590   35.0833    2.0529 C.3       8 UNK        -0.2000 
     52 C          31.4405   34.5177    3.5499 C.2       8 UNK         0.4948 
     53 O          31.5280   34.8818    4.7226 O.2       8 UNK        -0.5275 
     54 N          32.4764   34.4758    2.7054 N.am      9 UNK        -0.4246 
     55 CA         33.8679   34.7694    3.0519 C.3       9 UNK         0.0261 
     56 CB         34.6148   35.1883    1.7744 C.3       9 UNK        -0.1959 
     57 C          34.5842   33.5845    3.7282 C.2       9 UNK         0.5033 
     58 O          35.6723   33.7794    4.2726 O.2       9 UNK        -0.5390 
     59 N          33.9888   32.3867    3.6749 N.am      10 UNK        -0.4215 
     60 CA         34.5182   31.1436    4.2255 C.3       10 UNK         0.0240 
     61 CB         35.5161   30.5179    3.2311 C.3       10 UNK        -0.1982 
     62 C          33.3609   30.1837    4.5257 C.2       10 UNK         0.4970 
     63 O          32.2305   30.4218    4.0886 O.2       10 UNK        -0.4916 
     64 N          33.6782   29.1148    5.2634 N.am      11 UNK        -0.4279 
     65 CA         32.8212   27.9710    5.6323 C.3       11 UNK         0.1003 
     66 C          31.6463   28.2873    6.6032 C.2       11 UNK         0.5709 
     67 N          31.1079   29.4991    6.6272 N.am      11 UNK        -0.7358 
     68 O          31.2535   27.4255    7.3849 O.2       11 UNK        -0.4999 
     69 C69        32.3385   27.1377    4.4103 C.3       12 UNK        -0.0954 
     70 S70        33.7095   26.6001    3.3362 S.3       12 UNK        -0.2268 
     71 C71        34.0856   24.9578    4.0207 C.3       12 UNK         0.0203 
     72 H72        27.8999   20.6032    1.2431 H         1 UNK         0.0888 
     73 H73        26.5288   21.6526    1.6169 H         1 UNK         0.0888 
     74 H74        26.3908   20.4264    0.3541 H         1 UNK         0.0888 
     75 H75        29.3903   22.2518    0.6137 H         1 UNK         0.3017 
     76 H76        29.2205   23.1373   -2.0906 H         1 UNK         0.0873 
     77 H77        31.4542   24.1242   -1.6975 H         1 UNK         0.0745 
     78 H78        31.2627   23.9703    0.0295 H         1 UNK         0.0745 
     79 H79        33.8771   22.6328   -0.3812 H         1 UNK         0.0705 
     80 H80        33.6426   20.9761    0.1187 H         1 UNK         0.0705 
     81 H81        34.3186   23.9346    1.5265 H         1 UNK         0.1334 
     82 H82        32.0062   23.5446    5.1114 H         1 UNK         0.1417 
     83 H83        31.2685   20.9295    1.7898 H         1 UNK         0.1562 
     84 H84        30.5639   21.6035    5.3951 H         1 UNK         0.0748 
     85 H85        30.5171   20.3771    4.1591 H         1 UNK         0.0748 
     86 H86        29.5138   23.8004    5.2110 H         1 UNK         0.0940 
     87 H87        27.7828   23.6875    5.2210 H         1 UNK         0.0940 
     88 H88        29.4618   24.6326    2.8425 H         1 UNK         0.0703 
     89 H89        27.6763   24.7298    1.5888 H         1 UNK         0.3081 
     90 H90        25.4049   23.7737    1.1268 H         1 UNK         0.0719 
     91 H91        23.3264   25.2772    2.7971 H         1 UNK         0.0809 
     92 H92        23.0057   24.3659    1.3224 H         1 UNK         0.0809 
     93 H93        23.5663   23.5377    2.7659 H         1 UNK         0.0809 
     94 H94        25.5154   25.6012   -0.1191 H         1 UNK         0.2990 
     95 H95        24.4626   27.8907   -0.7240 H         1 UNK         0.0690 
     96 H96        25.1857   30.2549   -0.3936 H         1 UNK         0.0788 
     97 H97        25.7934   29.8524    1.2107 H         1 UNK         0.0788 
     98 H98        24.0770   29.7270    0.8616 H         1 UNK         0.0788 
     99 H99        27.3273   28.4567   -0.2106 H         1 UNK         0.2993 
    100 H100       28.1760   27.2185   -3.2625 H         1 UNK         0.0949 
    101 H101       29.5020   27.8010   -0.5648 H         1 UNK         0.0767 
    102 H102       30.1908   28.0202   -2.1611 H         1 UNK         0.0767 
    103 H103       28.8665   29.0432   -1.6448 H         1 UNK         0.0767 
    104 H104       29.0311   25.1970   -2.9520 H         1 UNK         0.3013 
    105 H105       28.4272   26.9774    2.2043 H         1 UNK         0.3121 
    106 H106       29.6199   28.7123    4.1747 H         1 UNK         0.0774 
    107 H107       27.6508   30.2507    4.3528 H         1 UNK         0.0815 
    108 H108       26.6451   29.0824    3.5060 H         1 UNK         0.0815 
    109 H109       27.3010   28.6979    5.0948 H         1 UNK         0.0815 
    110 H110       30.8443   30.0480    2.9343 H         1 UNK         0.2987 
    111 H111       29.9808   30.6826    0.1307 H         1 UNK         0.0949 
    112 H112       32.8068   30.3581    1.2772 H         1 UNK         0.0806 
    113 H113       31.9825   29.1722    0.2683 H         1 UNK         0.0806 
    114 H114       32.3998   30.7445   -0.3899 H         1 UNK         0.0806 
    115 H115       29.6516   31.9846    2.9269 H         1 UNK         0.3010 
    116 H116       29.4170   33.9525    3.8638 H         1 UNK         0.0829 
    117 H117       28.4665   34.7740    1.7251 H         1 UNK         0.0813 
    118 H118       29.3492   36.0469    2.5521 H         1 UNK         0.0813 
    119 H119       30.0677   35.2493    1.1638 H         1 UNK         0.0813 
    120 H120       32.2917   34.1313    1.7649 H         1 UNK         0.3038 
    121 H121       33.8882   35.6075    3.7518 H         1 UNK         0.0769 
    122 H122       35.6522   35.4453    1.9933 H         1 UNK         0.0811 
    123 H123       34.1556   36.0643    1.3159 H         1 UNK         0.0811 
    124 H124       34.6259   34.3880    1.0332 H         1 UNK         0.0811 
    125 H125       33.0620   32.3096    3.2780 H         1 UNK         0.3204 
    126 H126       35.0266   31.3592    5.1679 H         1 UNK         0.0748 
    127 H127       35.0428   30.2873    2.2763 H         1 UNK         0.0771 
    128 H128       36.3531   31.1881    3.0339 H         1 UNK         0.0771 
    129 H129       35.9357   29.5887    3.6184 H         1 UNK         0.0771 
    130 H130       34.6292   29.0415    5.5938 H         1 UNK         0.2980 
    131 H131       33.4832   27.3214    6.2066 H         1 UNK         0.0545 
    132 H132       31.4103   30.1893    5.9538 H         1 UNK         0.3459 
    133 H133       30.3634   29.7019    7.2745 H         1 UNK         0.3459 
    134 H134       31.7785   26.2590    4.7350 H         1 UNK         0.0616 
    135 H135       31.6564   27.7225    3.7946 H         1 UNK         0.0616 
    136 H136       35.1403   24.7435    3.8421 H         1 UNK         0.0634 
    137 H137       33.9604   24.9700    5.1046 H         1 UNK         0.0634 
@<TRIPOS>BOND
     1    1    2 1    
     2    1   72 1    
     3    1   73 1    
     4    1   74 1    
     5    2    3 2    
     6    2    4 am   BACKBONE|DICT|INTERRES
     7    4    5 1    
     8    4   75 1    
     9    5    6 1    
    10    5   35 1    
    11    5   76 1    
    12    6    7 1    
    13    6   77 1    
    14    6   78 1    
    15    7    8 1    
    16    8    9 1    
    17    8   79 1    
    18    8   80 1    
    19    9   10 ar   
    20    9   14 ar   
    21   10   11 ar   
    22   10   81 1    
    23   11   12 ar   
    24   11   71 1    
    25   12   13 ar   
    26   12   82 1    
    27   13   14 ar   
    28   13   15 1    
    29   14   83 1    
    30   15   16 1    
    31   15   84 1    
    32   15   85 1    
    33   16   17 1    
    34   17   18 1    
    35   17   86 1    
    36   17   87 1    
    37   18   19 1    
    38   18   37 1    
    39   18   88 1    
    40   19   20 am   BACKBONE|DICT|INTERRES
    41   19   89 1    
    42   20   21 2    
    43   20   22 1    
    44   22   23 1    
    45   22   24 1    
    46   22   90 1    
    47   23   91 1    
    48   23   92 1    
    49   23   93 1    
    50   24   25 am   BACKBONE|DICT|INTERRES
    51   24   94 1    
    52   25   26 2    
    53   25   27 1    
    54   27   28 1    
    55   27   29 1    
    56   27   95 1    
    57   28   96 1    
    58   28   97 1    
    59   28   98 1    
    60   29   30 am   BACKBONE|DICT|INTERRES
    61   29   99 1    
    62   30   31 2    
    63   30   32 1    
    64   32   33 1    
    65   32   34 1    
    66   32  100 1    
    67   33  101 1    
    68   33  102 1    
    69   33  103 1    
    70   34   35 am   BACKBONE|DICT|INTERRES
    71   34  104 1    
    72   35   36 2    
    73   37   38 2    
    74   37   39 am   BACKBONE|DICT|INTERRES
    75   39   40 1    
    76   39  105 1    
    77   40   41 1    
    78   40   42 1    
    79   40  106 1    
    80   41  107 1    
    81   41  108 1    
    82   41  109 1    
    83   42   43 2    
    84   42   44 am   BACKBONE|DICT|INTERRES
    85   44   45 1    
    86   44  110 1    
    87   45   46 1    
    88   45   47 1    
    89   45  111 1    
    90   46  112 1    
    91   46  113 1    
    92   46  114 1    
    93   47   48 2    
    94   47   49 am   BACKBONE|DICT|INTERRES
    95   49   50 1    
    96   49  115 1    
    97   50   51 1    
    98   50   52 1    
    99   50  116 1    
   100   51  117 1    
   101   51  118 1    
   102   51  119 1    
   103   52   53 2    
   104   52   54 am   BACKBONE|DICT|INTERRES
   105   54   55 1    
   106   54  120 1    
   107   55   56 1    
   108   55   57 1    
   109   55  121 1    
   110   56  122 1    
   111   56  123 1    
   112   56  124 1    
   113   57   58 2    
   114   57   59 am   BACKBONE|DICT|INTERRES
   115   59   60 1    
   116   59  125 1    
   117   60   61 1    
   118   60   62 1    
   119   60  126 1    
   120   61  127 1    
   121   61  128 1    
   122   61  129 1    
   123   62   63 2    
   124   62   64 am   BACKBONE|DICT|INTERRES
   125   64   65 1    
   126   64  130 1    
   127   65   66 1    
   128   65   69 1    
   129   65  131 1    
   130   66   67 am   BACKBONE|DICT|INTERRES
   131   66   68 2    
   132   67  132 1    
   133   67  133 1    
   134   69   70 1    
   135   69  134 1    
   136   69  135 1    
   137   70   71 1    
   138   71  136 1    
   139   71  137 1    
@<TRIPOS>SUBSTRUCTURE
     1 UNK         1 GROUP             0       ****    0 ROOT    
