@<TRIPOS>MOLECULE
3R136
137   139    1
SMALL
USER_CHARGES


@<TRIPOS>ATOM
      1 CA         26.3591   19.1005    1.2329 C.3       0 UNK        -0.1979 
      2 C          26.7482   20.4540    0.6592 C.2       0 UNK         0.4864 
      3 O          25.9234   21.3686    0.6362 O.2       0 UNK        -0.5359 
      4 N          28.0038   20.5991    0.2109 N.am      1 UNK        -0.4318 
      5 CA         28.5592   21.8236   -0.3837 C.3       1 UNK         0.0824 
      6 C6         30.0109   21.6253   -0.8888 C.3       12 UNK        -0.0944 
      7 S7         31.1762   21.0700    0.4077 S.3       12 UNK        -0.2672 
      8 C8         32.6526   22.0773    0.0590 C.3       12 UNK         0.0333 
      9 C9         32.4679   23.5513    0.4003 C.ar      12 UNK        -0.0807 
     10 C10        32.4264   23.9669    1.7353 C.ar      12 UNK        -0.0894 
     11 C11        32.3315   25.3256    2.0541 C.ar      12 UNK        -0.0804 
     12 C12        32.2917   26.2708    1.0245 C.ar      12 UNK        -0.0824 
     13 C13        32.2920   25.8676   -0.3145 C.ar      12 UNK        -0.0762 
     14 C14        32.3872   24.5058   -0.6189 C.ar      12 UNK        -0.0782 
     15 C15        32.1748   26.8958   -1.4364 C.3       12 UNK         0.0230 
     16 S16        30.7677   28.0435   -1.2294 S.3       12 UNK        -0.2608 
     17 C17        29.4000   26.8914   -0.8537 C.3       12 UNK        -0.0989 
     18 CA         28.0515   27.5798   -0.5238 C.3       5 UNK         0.0716 
     19 N          26.9773   26.5925   -0.5898 N.am      5 UNK        -0.4135 
     20 C          25.6924   26.8379   -0.8627 C.2       4 UNK         0.5031 
     21 O          25.2468   27.9494   -1.1521 O.2       4 UNK        -0.5229 
     22 CA         24.7489   25.6253   -0.8206 C.3       4 UNK         0.0329 
     23 CB         24.9502   24.7356   -2.0591 C.3       4 UNK        -0.2001 
     24 N          24.9458   24.8222    0.3878 N.am      4 UNK        -0.4303 
     25 C          24.3624   25.0709    1.5692 C.2       3 UNK         0.5044 
     26 O          23.5683   25.9925    1.7618 O.2       3 UNK        -0.5152 
     27 CA         24.7081   24.1252    2.7325 C.3       3 UNK         0.0319 
     28 CB         23.7639   22.9120    2.7458 C.3       3 UNK        -0.2001 
     29 N          26.0999   23.6728    2.6613 N.am      3 UNK        -0.4354 
     30 C          27.1280   24.3620    3.1819 C.2       2 UNK         0.4964 
     31 O          26.9788   25.3477    3.9039 O.2       2 UNK        -0.5047 
     32 CA         28.5628   23.8830    2.8804 C.3       2 UNK         0.0288 
     33 CB         29.2427   23.3534    4.1546 C.3       2 UNK        -0.2113 
     34 N          28.6636   22.8615    1.8380 N.am      2 UNK        -0.4145 
     35 C          28.4310   23.0570    0.5331 C.2       1 UNK         0.5006 
     36 O          28.0574   24.1271    0.0557 O.2       1 UNK        -0.5103 
     37 C          28.0666   28.2594    0.8640 C.2       5 UNK         0.5055 
     38 O          27.4371   27.7758    1.8069 O.2       5 UNK        -0.5220 
     39 N          28.8130   29.3629    0.9598 N.am      6 UNK        -0.4450 
     40 CA         29.1085   30.0976    2.1882 C.3       6 UNK         0.0367 
     41 CB         27.8875   30.8983    2.6796 C.3       6 UNK        -0.1929 
     42 C          30.3078   31.0191    1.9506 C.2       6 UNK         0.5070 
     43 O          31.2128   31.0630    2.7846 O.2       6 UNK        -0.5237 
     44 N          30.2966   31.7240    0.8064 N.am      7 UNK        -0.4739 
     45 CA         31.3034   32.6971    0.3622 C.3       7 UNK         0.0276 
     46 CB         32.6183   31.9743   -0.0104 C.3       7 UNK        -0.1927 
     47 C          31.4737   33.8396    1.3857 C.2       7 UNK         0.5013 
     48 O          30.4779   34.2879    1.9592 O.2       7 UNK        -0.5193 
     49 N          32.7151   34.2721    1.6403 N.am      8 UNK        -0.4253 
     50 CA         33.0696   35.2481    2.6764 C.3       8 UNK         0.0242 
     51 CB         34.3745   35.9569    2.2655 C.3       8 UNK        -0.2000 
     52 C          33.1636   34.5832    4.0668 C.2       8 UNK         0.4948 
     53 O          34.1843   34.7208    4.7435 O.2       8 UNK        -0.5275 
     54 N          32.1064   33.8475    4.4459 N.am      9 UNK        -0.4246 
     55 CA         31.9748   33.0118    5.6475 C.3       9 UNK         0.0261 
     56 CB         31.8924   33.8869    6.9161 C.3       9 UNK        -0.1959 
     57 C          33.0651   31.9236    5.7359 C.2       9 UNK         0.5033 
     58 O          33.6206   31.6852    6.8108 O.2       9 UNK        -0.5390 
     59 N          33.3489   31.2753    4.5973 N.am      10 UNK        -0.4215 
     60 CA         34.3898   30.2547    4.4428 C.3       10 UNK         0.0240 
     61 CB         34.5830   29.9468    2.9490 C.3       10 UNK        -0.1982 
     62 C          34.0947   28.9645    5.2226 C.2       10 UNK         0.4970 
     63 O          35.0314   28.2870    5.6469 O.2       10 UNK        -0.4916 
     64 N          32.8048   28.6596    5.4024 N.am      11 UNK        -0.4279 
     65 CA         32.3120   27.5201    6.1872 C.3       11 UNK         0.1003 
     66 C          32.3034   27.7649    7.7257 C.2       11 UNK         0.5709 
     67 N          32.6628   28.9439    8.2237 N.am      11 UNK        -0.7358 
     68 O          31.9736   26.8592    8.4876 O.2       11 UNK        -0.4999 
     69 C69        30.9273   27.0323    5.6784 C.3       12 UNK        -0.0954 
     70 S70        30.8060   26.7628    3.8746 S.3       12 UNK        -0.2268 
     71 C71        32.2957   25.7780    3.5070 C.3       12 UNK         0.0203 
     72 H72        26.0380   19.2111    2.2683 H         1 UNK         0.0888 
     73 H73        25.5325   18.6769    0.6630 H         1 UNK         0.0888 
     74 H74        27.1876   18.3929    1.2073 H         1 UNK         0.0888 
     75 H75        28.6453   19.8205    0.2704 H         1 UNK         0.3017 
     76 H76        27.9431   22.0383   -1.2597 H         1 UNK         0.0873 
     77 H77        30.3753   22.5435   -1.3523 H         1 UNK         0.0745 
     78 H78        30.0201   20.8777   -1.6834 H         1 UNK         0.0745 
     79 H79        32.9322   21.9508   -0.9882 H         1 UNK         0.0705 
     80 H80        33.4860   21.6829    0.6420 H         1 UNK         0.0705 
     81 H81        32.4809   23.2288    2.5239 H         1 UNK         0.1334 
     82 H82        32.2233   27.3228    1.2672 H         1 UNK         0.1417 
     83 H83        32.4086   24.1878   -1.6524 H         1 UNK         0.1562 
     84 H84        32.0705   26.3998   -2.4027 H         1 UNK         0.0748 
     85 H85        33.0980   27.4745   -1.4852 H         1 UNK         0.0748 
     86 H86        29.6845   26.2339   -0.0306 H         1 UNK         0.0940 
     87 H87        29.2835   26.2421   -1.7234 H         1 UNK         0.0940 
     88 H88        27.8562   28.3467   -1.2766 H         1 UNK         0.0703 
     89 H89        27.2511   25.6470   -0.3262 H         1 UNK         0.3081 
     90 H90        23.7223   25.9979   -0.8397 H         1 UNK         0.0719 
     91 H91        24.8084   25.3075   -2.9773 H         1 UNK         0.0809 
     92 H92        25.9518   24.3047   -2.0935 H         1 UNK         0.0809 
     93 H93        24.2334   23.9144   -2.0758 H         1 UNK         0.0809 
     94 H94        25.5941   24.0494    0.3233 H         1 UNK         0.2990 
     95 H95        24.5508   24.6720    3.6649 H         1 UNK         0.0690 
     96 H96        24.0059   22.2285    3.5598 H         1 UNK         0.0788 
     97 H97        23.8053   22.3510    1.8121 H         1 UNK         0.0788 
     98 H98        22.7296   23.2293    2.8852 H         1 UNK         0.0788 
     99 H99        26.2829   22.8575    2.0867 H         1 UNK         0.2993 
    100 H100       29.1160   24.7578    2.5321 H         1 UNK         0.0949 
    101 H101       29.2343   24.1070    4.9434 H         1 UNK         0.0767 
    102 H102       28.7390   22.4673    4.5425 H         1 UNK         0.0767 
    103 H103       30.2858   23.0969    3.9694 H         1 UNK         0.0767 
    104 H104       28.9570   21.9406    2.1302 H         1 UNK         0.3013 
    105 H105       29.3739   29.6172    0.1562 H         1 UNK         0.3121 
    106 H106       29.3927   29.3787    2.9597 H         1 UNK         0.0774 
    107 H107       28.1385   31.4856    3.5640 H         1 UNK         0.0815 
    108 H108       27.5238   31.5904    1.9196 H         1 UNK         0.0815 
    109 H109       27.0630   30.2407    2.9549 H         1 UNK         0.0815 
    110 H110       29.4638   31.6818    0.2363 H         1 UNK         0.2987 
    111 H111       30.9096   33.1609   -0.5436 H         1 UNK         0.0949 
    112 H112       33.3223   32.6495   -0.4981 H         1 UNK         0.0806 
    113 H113       32.4304   31.1586   -0.7091 H         1 UNK         0.0806 
    114 H114       33.1117   31.5477    0.8626 H         1 UNK         0.0806 
    115 H115       33.4839   33.8331    1.1546 H         1 UNK         0.3010 
    116 H116       32.2867   36.0074    2.7370 H         1 UNK         0.0829 
    117 H117       35.2111   35.2598    2.2021 H         1 UNK         0.0813 
    118 H118       34.2719   36.4478    1.2976 H         1 UNK         0.0813 
    119 H119       34.6456   36.7273    2.9889 H         1 UNK         0.0813 
    120 H120       31.3309   33.8022    3.7921 H         1 UNK         0.3038 
    121 H121       31.0262   32.4819    5.5485 H         1 UNK         0.0769 
    122 H122       31.6789   33.2795    7.7965 H         1 UNK         0.0811 
    123 H123       31.0984   34.6292    6.8354 H         1 UNK         0.0811 
    124 H124       32.8277   34.4146    7.1051 H         1 UNK         0.0811 
    125 H125       32.7438   31.4365    3.7939 H         1 UNK         0.3204 
    126 H126       35.3226   30.6676    4.8328 H         1 UNK         0.0748 
    127 H127       35.3544   29.1895    2.8018 H         1 UNK         0.0771 
    128 H128       33.6660   29.5715    2.4920 H         1 UNK         0.0771 
    129 H129       34.8956   30.8353    2.4006 H         1 UNK         0.0771 
    130 H130       32.1029   29.2658    5.0050 H         1 UNK         0.2980 
    131 H131       33.0127   26.6957    6.0480 H         1 UNK         0.0545 
    132 H132       32.9637   29.6985    7.6215 H         1 UNK         0.3459 
    133 H133       32.6537   29.0753    9.2226 H         1 UNK         0.3459 
    134 H134       30.6539   26.0963    6.1689 H         1 UNK         0.0616 
    135 H135       30.1532   27.7524    5.9494 H         1 UNK         0.0616 
    136 H136       33.1889   26.3715    3.7022 H         1 UNK         0.0634 
    137 H137       32.3280   24.9212    4.1818 H         1 UNK         0.0634 
@<TRIPOS>BOND
     1    1    2 1    
     2    1   72 1    
     3    1   73 1    
     4    1   74 1    
     5    2    3 2    
     6    2    4 am   BACKBONE|DICT|INTERRES
     7    4    5 1    
     8    4   75 1    
     9    5    6 1    
    10    5   35 1    
    11    5   76 1    
    12    6    7 1    
    13    6   77 1    
    14    6   78 1    
    15    7    8 1    
    16    8    9 1    
    17    8   79 1    
    18    8   80 1    
    19    9   10 ar   
    20    9   14 ar   
    21   10   11 ar   
    22   10   81 1    
    23   11   12 ar   
    24   11   71 1    
    25   12   13 ar   
    26   12   82 1    
    27   13   14 ar   
    28   13   15 1    
    29   14   83 1    
    30   15   16 1    
    31   15   84 1    
    32   15   85 1    
    33   16   17 1    
    34   17   18 1    
    35   17   86 1    
    36   17   87 1    
    37   18   19 1    
    38   18   37 1    
    39   18   88 1    
    40   19   20 am   BACKBONE|DICT|INTERRES
    41   19   89 1    
    42   20   21 2    
    43   20   22 1    
    44   22   23 1    
    45   22   24 1    
    46   22   90 1    
    47   23   91 1    
    48   23   92 1    
    49   23   93 1    
    50   24   25 am   BACKBONE|DICT|INTERRES
    51   24   94 1    
    52   25   26 2    
    53   25   27 1    
    54   27   28 1    
    55   27   29 1    
    56   27   95 1    
    57   28   96 1    
    58   28   97 1    
    59   28   98 1    
    60   29   30 am   BACKBONE|DICT|INTERRES
    61   29   99 1    
    62   30   31 2    
    63   30   32 1    
    64   32   33 1    
    65   32   34 1    
    66   32  100 1    
    67   33  101 1    
    68   33  102 1    
    69   33  103 1    
    70   34   35 am   BACKBONE|DICT|INTERRES
    71   34  104 1    
    72   35   36 2    
    73   37   38 2    
    74   37   39 am   BACKBONE|DICT|INTERRES
    75   39   40 1    
    76   39  105 1    
    77   40   41 1    
    78   40   42 1    
    79   40  106 1    
    80   41  107 1    
    81   41  108 1    
    82   41  109 1    
    83   42   43 2    
    84   42   44 am   BACKBONE|DICT|INTERRES
    85   44   45 1    
    86   44  110 1    
    87   45   46 1    
    88   45   47 1    
    89   45  111 1    
    90   46  112 1    
    91   46  113 1    
    92   46  114 1    
    93   47   48 2    
    94   47   49 am   BACKBONE|DICT|INTERRES
    95   49   50 1    
    96   49  115 1    
    97   50   51 1    
    98   50   52 1    
    99   50  116 1    
   100   51  117 1    
   101   51  118 1    
   102   51  119 1    
   103   52   53 2    
   104   52   54 am   BACKBONE|DICT|INTERRES
   105   54   55 1    
   106   54  120 1    
   107   55   56 1    
   108   55   57 1    
   109   55  121 1    
   110   56  122 1    
   111   56  123 1    
   112   56  124 1    
   113   57   58 2    
   114   57   59 am   BACKBONE|DICT|INTERRES
   115   59   60 1    
   116   59  125 1    
   117   60   61 1    
   118   60   62 1    
   119   60  126 1    
   120   61  127 1    
   121   61  128 1    
   122   61  129 1    
   123   62   63 2    
   124   62   64 am   BACKBONE|DICT|INTERRES
   125   64   65 1    
   126   64  130 1    
   127   65   66 1    
   128   65   69 1    
   129   65  131 1    
   130   66   67 am   BACKBONE|DICT|INTERRES
   131   66   68 2    
   132   67  132 1    
   133   67  133 1    
   134   69   70 1    
   135   69  134 1    
   136   69  135 1    
   137   70   71 1    
   138   71  136 1    
   139   71  137 1    
@<TRIPOS>SUBSTRUCTURE
     1 UNK         1 GROUP             0       ****    0 ROOT    
