@<TRIPOS>MOLECULE
3R136
137   139    1
SMALL
USER_CHARGES


@<TRIPOS>ATOM
      1 CA         26.6377   22.4678    1.9822 C.3       0 UNK        -0.1979 
      2 C          27.7761   22.7054    1.0018 C.2       0 UNK         0.4864 
      3 O          27.7468   22.1798   -0.1121 O.2       0 UNK        -0.5359 
      4 N          28.7753   23.5068    1.3960 N.am      1 UNK        -0.4318 
      5 CA         29.8797   23.9401    0.5367 C.3       1 UNK         0.0824 
      6 C6         31.0002   24.6358    1.3413 C.3       12 UNK        -0.0944 
      7 S7         32.0972   23.4507    2.1949 S.3       12 UNK        -0.2672 
      8 C8         31.1614   22.9507    3.6800 C.3       12 UNK         0.0333 
      9 C9         30.6052   24.1258    4.4730 C.ar      12 UNK        -0.0807 
     10 C10        31.4606   25.1144    4.9710 C.ar      12 UNK        -0.0894 
     11 C11        30.9516   26.1924    5.7016 C.ar      12 UNK        -0.0804 
     12 C12        29.5741   26.2763    5.9250 C.ar      12 UNK        -0.0824 
     13 C13        28.7054   25.3016    5.4223 C.ar      12 UNK        -0.0762 
     14 C14        29.2302   24.2191    4.7127 C.ar      12 UNK        -0.0782 
     15 C15        27.2063   25.4094    5.6727 C.3       12 UNK         0.0230 
     16 S16        26.5200   26.9708    5.0304 S.3       12 UNK        -0.2608 
     17 C17        25.7293   26.5095    3.4442 C.3       12 UNK        -0.0989 
     18 CA         26.5615   26.7866    2.1530 C.3       5 UNK         0.0716 
     19 N          25.8467   26.4907    0.9034 N.am      5 UNK        -0.4135 
     20 C          24.7020   27.0565    0.4829 C.2       4 UNK         0.5031 
     21 O          23.9946   27.7852    1.1790 O.2       4 UNK        -0.5229 
     22 CA         24.2660   26.8187   -0.9743 C.3       4 UNK         0.0329 
     23 CB         24.4500   28.1054   -1.7974 C.3       4 UNK        -0.2001 
     24 N          24.9708   25.7351   -1.6553 N.am      4 UNK        -0.4303 
     25 C          24.7704   24.4265   -1.4714 C.2       3 UNK         0.5044 
     26 O          23.9857   23.9663   -0.6421 O.2       3 UNK        -0.5152 
     27 CA         25.5867   23.4657   -2.3562 C.3       3 UNK         0.0319 
     28 CB         24.8936   23.2308   -3.7125 C.3       3 UNK        -0.2001 
     29 N          26.9981   23.8478   -2.5223 N.am      3 UNK        -0.4354 
     30 C          27.5271   24.9097   -3.1557 C.2       2 UNK         0.4964 
     31 O          26.8537   25.7396   -3.7686 O.2       2 UNK        -0.5047 
     32 CA         29.0561   25.1019   -3.0488 C.3       2 UNK         0.0288 
     33 CB         29.4804   26.5783   -3.2075 C.3       2 UNK        -0.2113 
     34 N          29.6224   24.5230   -1.8227 N.am      2 UNK        -0.4145 
     35 C          29.3255   24.8663   -0.5603 C.2       1 UNK         0.5006 
     36 O          28.6107   25.8221   -0.2408 O.2       1 UNK        -0.5103 
     37 C          27.1705   28.1999    2.0284 C.2       5 UNK         0.5055 
     38 O          26.6935   29.1587    2.6407 O.2       5 UNK        -0.5220 
     39 N          28.2115   28.3062    1.1902 N.am      6 UNK        -0.4450 
     40 CA         29.0246   29.5092    0.9846 C.3       6 UNK         0.0367 
     41 CB         29.7971   29.3658   -0.3394 C.3       6 UNK        -0.1929 
     42 C          29.9569   29.7584    2.1868 C.2       6 UNK         0.5070 
     43 O          31.1782   29.6554    2.0569 O.2       6 UNK        -0.5237 
     44 N          29.3484   30.0250    3.3505 N.am      7 UNK        -0.4739 
     45 CA         29.9867   30.0620    4.6657 C.3       7 UNK         0.0276 
     46 CB         28.9372   30.3397    5.7533 C.3       7 UNK        -0.1927 
     47 C          31.1681   31.0358    4.7618 C.2       7 UNK         0.5013 
     48 O          32.2842   30.6135    5.0706 O.2       7 UNK        -0.5193 
     49 N          30.9163   32.3061    4.4196 N.am      8 UNK        -0.4253 
     50 CA         31.8949   33.4000    4.4016 C.3       8 UNK         0.0242 
     51 CB         31.1450   34.7394    4.5303 C.3       8 UNK        -0.2000 
     52 C          32.8245   33.3568    3.1689 C.2       8 UNK         0.4948 
     53 O          33.0966   34.3940    2.5611 O.2       8 UNK        -0.5275 
     54 N          33.2899   32.1548    2.8232 N.am      9 UNK        -0.4246 
     55 CA         34.2019   31.8530    1.7267 C.3       9 UNK         0.0261 
     56 CB         33.4808   31.9153    0.3661 C.3       9 UNK        -0.1959 
     57 C          34.8348   30.4789    1.9626 C.2       9 UNK         0.5033 
     58 O          36.0600   30.3641    1.9118 O.2       9 UNK        -0.5390 
     59 N          33.9974   29.4651    2.2291 N.am      10 UNK        -0.4215 
     60 CA         34.4304   28.0895    2.4815 C.3       10 UNK         0.0240 
     61 CB         33.2308   27.1437    2.3302 C.3       10 UNK        -0.1982 
     62 C          35.1123   27.8912    3.8462 C.2       10 UNK         0.4970 
     63 O          35.9990   27.0416    3.9439 O.2       10 UNK        -0.4916 
     64 N          34.6992   28.6618    4.8597 N.am      11 UNK        -0.4279 
     65 CA         35.2615   28.6430    6.2173 C.3       11 UNK         0.1003 
     66 C          36.0084   29.9702    6.5111 C.2       11 UNK         0.5709 
     67 N          36.9606   29.9505    7.4340 N.am      11 UNK        -0.7358 
     68 O          35.7236   31.0201    5.9361 O.2       11 UNK        -0.4999 
     69 C69        34.1717   28.3729    7.2905 C.3       12 UNK        -0.0954 
     70 S70        33.3380   26.7597    7.0843 S.3       12 UNK        -0.2268 
     71 C71        31.8622   27.3149    6.1814 C.3       12 UNK         0.0203 
     72 H72        25.6798   22.6182    1.4840 H         1 UNK         0.0888 
     73 H73        26.6710   21.4445    2.3553 H         1 UNK         0.0888 
     74 H74        26.6807   23.1467    2.8329 H         1 UNK         0.0888 
     75 H75        28.7526   23.9312    2.3097 H         1 UNK         0.3017 
     76 H76        30.2980   23.0520    0.0570 H         1 UNK         0.0873 
     77 H77        30.5982   25.3690    2.0427 H         1 UNK         0.0745 
     78 H78        31.6480   25.2003    0.6681 H         1 UNK         0.0745 
     79 H79        30.3653   22.2691    3.3778 H         1 UNK         0.0705 
     80 H80        31.8218   22.3725    4.3276 H         1 UNK         0.0705 
     81 H81        32.5228   25.0512    4.7767 H         1 UNK         0.1334 
     82 H82        29.1677   27.1139    6.4756 H         1 UNK         0.1417 
     83 H83        28.5676   23.4422    4.3590 H         1 UNK         0.1562 
     84 H84        27.0347   25.3751    6.7494 H         1 UNK         0.0748 
     85 H85        26.6676   24.5587    5.2537 H         1 UNK         0.0748 
     86 H86        24.7932   27.0662    3.4176 H         1 UNK         0.0940 
     87 H87        25.4371   25.4595    3.4744 H         1 UNK         0.0940 
     88 H88        27.4063   26.0975    2.1874 H         1 UNK         0.0703 
     89 H89        26.3786   25.9605    0.2254 H         1 UNK         0.3081 
     90 H90        23.2020   26.5727   -0.9569 H         1 UNK         0.0719 
     91 H91        23.9063   28.9394   -1.3511 H         1 UNK         0.0809 
     92 H92        25.4997   28.3962   -1.8600 H         1 UNK         0.0809 
     93 H93        24.0744   27.9840   -2.8137 H         1 UNK         0.0809 
     94 H94        25.6271   25.9978   -2.3871 H         1 UNK         0.2990 
     95 H95        25.6056   22.5080   -1.8337 H         1 UNK         0.0690 
     96 H96        25.4390   22.5047   -4.3152 H         1 UNK         0.0788 
     97 H97        24.8033   24.1491   -4.2933 H         1 UNK         0.0788 
     98 H98        23.8851   22.8407   -3.5690 H         1 UNK         0.0788 
     99 H99        27.6332   23.2595   -1.9941 H         1 UNK         0.2993 
    100 H100       29.4868   24.5429   -3.8810 H         1 UNK         0.0949 
    101 H101       28.9940   27.2192   -2.4725 H         1 UNK         0.0767 
    102 H102       30.5582   26.6978   -3.0972 H         1 UNK         0.0767 
    103 H103       29.2122   26.9581   -4.1941 H         1 UNK         0.0767 
    104 H104       30.2192   23.7193   -1.9665 H         1 UNK         0.3013 
    105 H105       28.5071   27.4705    0.6899 H         1 UNK         0.3121 
    106 H106       28.3628   30.3733    0.8961 H         1 UNK         0.0774 
    107 H107       30.4488   28.4908   -0.3351 H         1 UNK         0.0815 
    108 H108       29.1156   29.2743   -1.1847 H         1 UNK         0.0815 
    109 H109       30.4230   30.2397   -0.5238 H         1 UNK         0.0815 
    110 H110       28.3321   30.0238    3.3392 H         1 UNK         0.2987 
    111 H111       30.3724   29.0598    4.8285 H         1 UNK         0.0949 
    112 H112       28.1653   29.5698    5.7622 H         1 UNK         0.0806 
    113 H113       29.3939   30.3494    6.7440 H         1 UNK         0.0806 
    114 H114       28.4451   31.3022    5.6094 H         1 UNK         0.0806 
    115 H115       29.9818   32.5337    4.1121 H         1 UNK         0.3010 
    116 H116       32.5382   33.2959    5.2782 H         1 UNK         0.0829 
    117 H117       30.4995   34.9238    3.6707 H         1 UNK         0.0813 
    118 H118       31.8427   35.5751    4.6003 H         1 UNK         0.0813 
    119 H119       30.5263   34.7641    5.4276 H         1 UNK         0.0813 
    120 H120       33.0436   31.3796    3.4316 H         1 UNK         0.3038 
    121 H121       35.0044   32.5938    1.7327 H         1 UNK         0.0769 
    122 H122       33.1133   32.9196    0.1557 H         1 UNK         0.0811 
    123 H123       32.6299   31.2348    0.3270 H         1 UNK         0.0811 
    124 H124       34.1563   31.6425   -0.4456 H         1 UNK         0.0811 
    125 H125       32.9888   29.6212    2.1923 H         1 UNK         0.3204 
    126 H126       35.1606   27.8231    1.7142 H         1 UNK         0.0748 
    127 H127       32.4355   27.3741    3.0387 H         1 UNK         0.0771 
    128 H128       32.8079   27.2074    1.3278 H         1 UNK         0.0771 
    129 H129       33.5284   26.1078    2.4956 H         1 UNK         0.0771 
    130 H130       33.9892   29.3667    4.7011 H         1 UNK         0.2980 
    131 H131       36.0014   27.8443    6.2951 H         1 UNK         0.0545 
    132 H132       37.2001   29.1004    7.9203 H         1 UNK         0.3459 
    133 H133       37.4518   30.8046    7.6470 H         1 UNK         0.3459 
    134 H134       33.4284   29.1727    7.2932 H         1 UNK         0.0616 
    135 H135       34.6167   28.3760    8.2871 H         1 UNK         0.0616 
    136 H136       31.3140   28.0119    6.8172 H         1 UNK         0.0634 
    137 H137       32.1887   27.8750    5.3083 H         1 UNK         0.0634 
@<TRIPOS>BOND
     1    1    2 1    
     2    1   72 1    
     3    1   73 1    
     4    1   74 1    
     5    2    3 2    
     6    2    4 am   BACKBONE|DICT|INTERRES
     7    4    5 1    
     8    4   75 1    
     9    5    6 1    
    10    5   35 1    
    11    5   76 1    
    12    6    7 1    
    13    6   77 1    
    14    6   78 1    
    15    7    8 1    
    16    8    9 1    
    17    8   79 1    
    18    8   80 1    
    19    9   10 ar   
    20    9   14 ar   
    21   10   11 ar   
    22   10   81 1    
    23   11   12 ar   
    24   11   71 1    
    25   12   13 ar   
    26   12   82 1    
    27   13   14 ar   
    28   13   15 1    
    29   14   83 1    
    30   15   16 1    
    31   15   84 1    
    32   15   85 1    
    33   16   17 1    
    34   17   18 1    
    35   17   86 1    
    36   17   87 1    
    37   18   19 1    
    38   18   37 1    
    39   18   88 1    
    40   19   20 am   BACKBONE|DICT|INTERRES
    41   19   89 1    
    42   20   21 2    
    43   20   22 1    
    44   22   23 1    
    45   22   24 1    
    46   22   90 1    
    47   23   91 1    
    48   23   92 1    
    49   23   93 1    
    50   24   25 am   BACKBONE|DICT|INTERRES
    51   24   94 1    
    52   25   26 2    
    53   25   27 1    
    54   27   28 1    
    55   27   29 1    
    56   27   95 1    
    57   28   96 1    
    58   28   97 1    
    59   28   98 1    
    60   29   30 am   BACKBONE|DICT|INTERRES
    61   29   99 1    
    62   30   31 2    
    63   30   32 1    
    64   32   33 1    
    65   32   34 1    
    66   32  100 1    
    67   33  101 1    
    68   33  102 1    
    69   33  103 1    
    70   34   35 am   BACKBONE|DICT|INTERRES
    71   34  104 1    
    72   35   36 2    
    73   37   38 2    
    74   37   39 am   BACKBONE|DICT|INTERRES
    75   39   40 1    
    76   39  105 1    
    77   40   41 1    
    78   40   42 1    
    79   40  106 1    
    80   41  107 1    
    81   41  108 1    
    82   41  109 1    
    83   42   43 2    
    84   42   44 am   BACKBONE|DICT|INTERRES
    85   44   45 1    
    86   44  110 1    
    87   45   46 1    
    88   45   47 1    
    89   45  111 1    
    90   46  112 1    
    91   46  113 1    
    92   46  114 1    
    93   47   48 2    
    94   47   49 am   BACKBONE|DICT|INTERRES
    95   49   50 1    
    96   49  115 1    
    97   50   51 1    
    98   50   52 1    
    99   50  116 1    
   100   51  117 1    
   101   51  118 1    
   102   51  119 1    
   103   52   53 2    
   104   52   54 am   BACKBONE|DICT|INTERRES
   105   54   55 1    
   106   54  120 1    
   107   55   56 1    
   108   55   57 1    
   109   55  121 1    
   110   56  122 1    
   111   56  123 1    
   112   56  124 1    
   113   57   58 2    
   114   57   59 am   BACKBONE|DICT|INTERRES
   115   59   60 1    
   116   59  125 1    
   117   60   61 1    
   118   60   62 1    
   119   60  126 1    
   120   61  127 1    
   121   61  128 1    
   122   61  129 1    
   123   62   63 2    
   124   62   64 am   BACKBONE|DICT|INTERRES
   125   64   65 1    
   126   64  130 1    
   127   65   66 1    
   128   65   69 1    
   129   65  131 1    
   130   66   67 am   BACKBONE|DICT|INTERRES
   131   66   68 2    
   132   67  132 1    
   133   67  133 1    
   134   69   70 1    
   135   69  134 1    
   136   69  135 1    
   137   70   71 1    
   138   71  136 1    
   139   71  137 1    
@<TRIPOS>SUBSTRUCTURE
     1 UNK         1 GROUP             0       ****    0 ROOT    
