@<TRIPOS>MOLECULE
3R136
137   139    1
SMALL
USER_CHARGES


@<TRIPOS>ATOM
      1 CA         32.2009   23.8764   -4.1861 C.3       0 UNK        -0.1979 
      2 C          31.6592   24.6085   -2.9665 C.2       0 UNK         0.4864 
      3 O          31.0489   25.6685   -3.1104 O.2       0 UNK        -0.5359 
      4 N          31.8836   24.0537   -1.7677 N.am      1 UNK        -0.4318 
      5 CA         31.4049   24.5993   -0.4911 C.3       1 UNK         0.0824 
      6 C6         32.2389   24.0657    0.7009 C.3       12 UNK        -0.0944 
      7 S7         32.1306   22.2503    0.9130 S.3       12 UNK        -0.2672 
      8 C8         32.2826   22.0514    2.7179 C.3       12 UNK         0.0333 
      9 C9         31.2211   22.8117    3.5047 C.ar      12 UNK        -0.0807 
     10 C10        31.6059   23.8250    4.3874 C.ar      12 UNK        -0.0894 
     11 C11        30.6517   24.5102    5.1433 C.ar      12 UNK        -0.0804 
     12 C12        29.3009   24.1739    5.0166 C.ar      12 UNK        -0.0824 
     13 C13        28.8985   23.1811    4.1172 C.ar      12 UNK        -0.0762 
     14 C14        29.8643   22.4986    3.3683 C.ar      12 UNK        -0.0782 
     15 C15        27.4242   22.8323    3.9648 C.3       12 UNK         0.0230 
     16 S16        26.5818   23.9185    2.7671 S.3       12 UNK        -0.2608 
     17 C17        26.2290   25.4071    3.7664 C.3       12 UNK        -0.0989 
     18 CA         27.1064   26.6235    3.3773 C.3       5 UNK         0.0716 
     19 N          26.9380   26.9834    1.9696 N.am      5 UNK        -0.4135 
     20 C          27.5228   28.0021    1.3264 C.2       4 UNK         0.5031 
     21 O          28.3014   28.7813    1.8709 O.2       4 UNK        -0.5229 
     22 CA         27.2026   28.1817   -0.1736 C.3       4 UNK         0.0329 
     23 CB         28.4743   28.4938   -0.9835 C.3       4 UNK        -0.2001 
     24 N          26.5539   27.0054   -0.7582 N.am      4 UNK        -0.4303 
     25 C          25.2481   26.7100   -0.7163 C.2       3 UNK         0.5044 
     26 O          24.3949   27.4743   -0.2682 O.2       3 UNK        -0.5152 
     27 CA         24.8211   25.2996   -1.1737 C.3       3 UNK         0.0319 
     28 CB         24.3680   25.2974   -2.6466 C.3       3 UNK        -0.2001 
     29 N          25.8176   24.2480   -0.8957 N.am      3 UNK        -0.4354 
     30 C          27.0184   24.0681   -1.4650 C.2       2 UNK         0.4964 
     31 O          27.4403   24.7401   -2.4077 O.2       2 UNK        -0.5047 
     32 CA         27.9091   22.9736   -0.8542 C.3       2 UNK         0.0288 
     33 CB         27.7062   21.6378   -1.5872 C.3       2 UNK        -0.2113 
     34 N          29.3281   23.3340   -0.8982 N.am      2 UNK        -0.4145 
     35 C          29.8888   24.3849   -0.2762 C.2       1 UNK         0.5006 
     36 O          29.2668   25.1679    0.4419 O.2       1 UNK        -0.5103 
     37 C          26.8060   27.8172    4.3070 C.2       5 UNK         0.5055 
     38 O          25.7609   28.4553    4.1629 O.2       5 UNK        -0.5220 
     39 N          27.7335   28.0742    5.2362 N.am      6 UNK        -0.4450 
     40 CA         27.7652   29.1575    6.2243 C.3       6 UNK         0.0367 
     41 CB         26.4883   29.1909    7.0905 C.3       6 UNK        -0.1929 
     42 C          28.1254   30.5447    5.6558 C.2       6 UNK         0.5070 
     43 O          28.1683   31.4988    6.4343 O.2       6 UNK        -0.5237 
     44 N          28.4188   30.6601    4.3515 N.am      7 UNK        -0.4739 
     45 CA         28.9747   31.8795    3.7604 C.3       7 UNK         0.0276 
     46 CB         28.6364   31.9418    2.2627 C.3       7 UNK        -0.1927 
     47 C          30.4952   31.8955    3.9589 C.2       7 UNK         0.5013 
     48 O          31.1413   30.8584    3.7854 O.2       7 UNK        -0.5193 
     49 N          31.0527   33.0755    4.2627 N.am      8 UNK        -0.4253 
     50 CA         32.4835   33.2888    4.5189 C.3       8 UNK         0.0242 
     51 CB         32.7174   34.7541    4.9198 C.3       8 UNK        -0.2000 
     52 C          33.4064   32.8991    3.3490 C.2       8 UNK         0.4948 
     53 O          34.5423   32.4906    3.5889 O.2       8 UNK        -0.5275 
     54 N          32.8937   32.9879    2.1141 N.am      9 UNK        -0.4246 
     55 CA         33.5723   32.5498    0.8923 C.3       9 UNK         0.0261 
     56 CB         32.7649   33.0235   -0.3273 C.3       9 UNK        -0.1959 
     57 C          33.8080   31.0272    0.8211 C.2       9 UNK         0.5033 
     58 O          34.7444   30.6045    0.1400 O.2       9 UNK        -0.5390 
     59 N          32.9677   30.2391    1.5072 N.am      10 UNK        -0.4215 
     60 CA         33.0698   28.7816    1.5835 C.3       10 UNK         0.0240 
     61 CB         31.6734   28.1627    1.3844 C.3       10 UNK        -0.1982 
     62 C          33.6575   28.3379    2.9293 C.2       10 UNK         0.4970 
     63 O          34.5432   27.4816    2.9456 O.2       10 UNK        -0.4916 
     64 N          33.1345   28.9032    4.0243 N.am      11 UNK        -0.4279 
     65 CA         33.3674   28.4403    5.4007 C.3       11 UNK         0.1003 
     66 C          34.3945   29.2904    6.1979 C.2       11 UNK         0.5709 
     67 N          34.9476   30.3678    5.6552 N.am      11 UNK        -0.7358 
     68 O          34.7155   28.9532    7.3352 O.2       11 UNK        -0.4999 
     69 C69        32.0263   28.2938    6.1706 C.3       12 UNK        -0.0954 
     70 S70        30.8398   27.2359    5.2751 S.3       12 UNK        -0.2268 
     71 C71        31.0850   25.6277    6.0776 C.3       12 UNK         0.0203 
     72 H72        32.8913   24.5187   -4.7335 H         1 UNK         0.0888 
     73 H73        32.7313   22.9635   -3.9136 H         1 UNK         0.0888 
     74 H74        31.3836   23.6069   -4.8541 H         1 UNK         0.0888 
     75 H75        32.4041   23.1891   -1.7020 H         1 UNK         0.3017 
     76 H76        31.5536   25.6810   -0.5273 H         1 UNK         0.0873 
     77 H77        33.2887   24.3300    0.5655 H         1 UNK         0.0745 
     78 H78        31.9285   24.5709    1.6164 H         1 UNK         0.0745 
     79 H79        33.2846   22.3623    3.0172 H         1 UNK         0.0705 
     80 H80        32.2086   20.9906    2.9600 H         1 UNK         0.0705 
     81 H81        32.6513   24.0845    4.4857 H         1 UNK         0.1334 
     82 H82        28.5635   24.6997    5.6061 H         1 UNK         0.1417 
     83 H83        29.5630   21.7242    2.6759 H         1 UNK         0.1562 
     84 H84        26.9199   22.8736    4.9314 H         1 UNK         0.0748 
     85 H85        27.3241   21.8012    3.6224 H         1 UNK         0.0748 
     86 H86        26.3471   25.1694    4.8250 H         1 UNK         0.0940 
     87 H87        25.1717   25.6492    3.6384 H         1 UNK         0.0940 
     88 H88        28.1558   26.3452    3.4951 H         1 UNK         0.0703 
     89 H89        26.3304   26.3846    1.4397 H         1 UNK         0.3081 
     90 H90        26.5286   29.0366   -0.2563 H         1 UNK         0.0719 
     91 H91        29.1984   27.6803   -0.9193 H         1 UNK         0.0809 
     92 H92        28.2446   28.6550   -2.0366 H         1 UNK         0.0809 
     93 H93        28.9642   29.3976   -0.6182 H         1 UNK         0.0809 
     94 H94        27.1716   26.3127   -1.1683 H         1 UNK         0.2990 
     95 H95        23.9511   25.0350   -0.5706 H         1 UNK         0.0690 
     96 H96        24.0364   24.3072   -2.9583 H         1 UNK         0.0788 
     97 H97        25.1621   25.6146   -3.3224 H         1 UNK         0.0788 
     98 H98        23.5306   25.9812   -2.7936 H         1 UNK         0.0788 
     99 H99        25.5817   23.6458   -0.1181 H         1 UNK         0.2993 
    100 H100       27.6393   22.8435    0.1952 H         1 UNK         0.0949 
    101 H101       27.9844   21.7099   -2.6396 H         1 UNK         0.0767 
    102 H102       28.3003   20.8424   -1.1356 H         1 UNK         0.0767 
    103 H103       26.6620   21.3235   -1.5464 H         1 UNK         0.0767 
    104 H104       29.9213   22.7645   -1.4822 H         1 UNK         0.3013 
    105 H105       28.5802   27.5179    5.2155 H         1 UNK         0.3121 
    106 H106       28.5905   28.9028    6.8902 H         1 UNK         0.0774 
    107 H107       26.6103   29.8673    7.9368 H         1 UNK         0.0815 
    108 H108       25.6223   29.5388    6.5279 H         1 UNK         0.0815 
    109 H109       26.2557   28.2064    7.4956 H         1 UNK         0.0815 
    110 H110       28.4046   29.8399    3.7547 H         1 UNK         0.2987 
    111 H111       28.5316   32.7508    4.2470 H         1 UNK         0.0949 
    112 H112       28.8987   32.9140    1.8451 H         1 UNK         0.0806 
    113 H113       29.1817   31.1908    1.6909 H         1 UNK         0.0806 
    114 H114       27.5718   31.7886    2.0873 H         1 UNK         0.0806 
    115 H115       30.4531   33.8812    4.3720 H         1 UNK         0.3010 
    116 H116       32.7568   32.6551    5.3658 H         1 UNK         0.0829 
    117 H117       32.1517   35.0170    5.8144 H         1 UNK         0.0813 
    118 H118       33.7699   34.9345    5.1415 H         1 UNK         0.0813 
    119 H119       32.4305   35.4428    4.1237 H         1 UNK         0.0813 
    120 H120       31.9550   33.3455    2.0131 H         1 UNK         0.3038 
    121 H121       34.5518   33.0327    0.8635 H         1 UNK         0.0769 
    122 H122       33.2594   32.7373   -1.2566 H         1 UNK         0.0811 
    123 H123       32.6616   34.1093   -0.3399 H         1 UNK         0.0811 
    124 H124       31.7644   32.5887   -0.3433 H         1 UNK         0.0811 
    125 H125       32.2526   30.6691    2.0849 H         1 UNK         0.3204 
    126 H126       33.7206   28.4000    0.7919 H         1 UNK         0.0748 
    127 H127       31.7021   27.0772    1.4925 H         1 UNK         0.0771 
    128 H128       30.9554   28.5381    2.1173 H         1 UNK         0.0771 
    129 H129       31.2808   28.3813    0.3915 H         1 UNK         0.0771 
    130 H130       32.3980   29.5994    3.9237 H         1 UNK         0.2980 
    131 H131       33.8082   27.4427    5.3604 H         1 UNK         0.0545 
    132 H132       34.6979   30.6864    4.7284 H         1 UNK         0.3459 
    133 H133       35.6184   30.8921    6.1931 H         1 UNK         0.3459 
    134 H134       31.5620   29.2720    6.3101 H         1 UNK         0.0616 
    135 H135       32.1873   27.8845    7.1696 H         1 UNK         0.0616 
    136 H136       30.5157   25.5919    7.0073 H         1 UNK         0.0634 
    137 H137       32.1352   25.5074    6.3476 H         1 UNK         0.0634 
@<TRIPOS>BOND
     1    1    2 1    
     2    1   72 1    
     3    1   73 1    
     4    1   74 1    
     5    2    3 2    
     6    2    4 am   BACKBONE|DICT|INTERRES
     7    4    5 1    
     8    4   75 1    
     9    5    6 1    
    10    5   35 1    
    11    5   76 1    
    12    6    7 1    
    13    6   77 1    
    14    6   78 1    
    15    7    8 1    
    16    8    9 1    
    17    8   79 1    
    18    8   80 1    
    19    9   10 ar   
    20    9   14 ar   
    21   10   11 ar   
    22   10   81 1    
    23   11   12 ar   
    24   11   71 1    
    25   12   13 ar   
    26   12   82 1    
    27   13   14 ar   
    28   13   15 1    
    29   14   83 1    
    30   15   16 1    
    31   15   84 1    
    32   15   85 1    
    33   16   17 1    
    34   17   18 1    
    35   17   86 1    
    36   17   87 1    
    37   18   19 1    
    38   18   37 1    
    39   18   88 1    
    40   19   20 am   BACKBONE|DICT|INTERRES
    41   19   89 1    
    42   20   21 2    
    43   20   22 1    
    44   22   23 1    
    45   22   24 1    
    46   22   90 1    
    47   23   91 1    
    48   23   92 1    
    49   23   93 1    
    50   24   25 am   BACKBONE|DICT|INTERRES
    51   24   94 1    
    52   25   26 2    
    53   25   27 1    
    54   27   28 1    
    55   27   29 1    
    56   27   95 1    
    57   28   96 1    
    58   28   97 1    
    59   28   98 1    
    60   29   30 am   BACKBONE|DICT|INTERRES
    61   29   99 1    
    62   30   31 2    
    63   30   32 1    
    64   32   33 1    
    65   32   34 1    
    66   32  100 1    
    67   33  101 1    
    68   33  102 1    
    69   33  103 1    
    70   34   35 am   BACKBONE|DICT|INTERRES
    71   34  104 1    
    72   35   36 2    
    73   37   38 2    
    74   37   39 am   BACKBONE|DICT|INTERRES
    75   39   40 1    
    76   39  105 1    
    77   40   41 1    
    78   40   42 1    
    79   40  106 1    
    80   41  107 1    
    81   41  108 1    
    82   41  109 1    
    83   42   43 2    
    84   42   44 am   BACKBONE|DICT|INTERRES
    85   44   45 1    
    86   44  110 1    
    87   45   46 1    
    88   45   47 1    
    89   45  111 1    
    90   46  112 1    
    91   46  113 1    
    92   46  114 1    
    93   47   48 2    
    94   47   49 am   BACKBONE|DICT|INTERRES
    95   49   50 1    
    96   49  115 1    
    97   50   51 1    
    98   50   52 1    
    99   50  116 1    
   100   51  117 1    
   101   51  118 1    
   102   51  119 1    
   103   52   53 2    
   104   52   54 am   BACKBONE|DICT|INTERRES
   105   54   55 1    
   106   54  120 1    
   107   55   56 1    
   108   55   57 1    
   109   55  121 1    
   110   56  122 1    
   111   56  123 1    
   112   56  124 1    
   113   57   58 2    
   114   57   59 am   BACKBONE|DICT|INTERRES
   115   59   60 1    
   116   59  125 1    
   117   60   61 1    
   118   60   62 1    
   119   60  126 1    
   120   61  127 1    
   121   61  128 1    
   122   61  129 1    
   123   62   63 2    
   124   62   64 am   BACKBONE|DICT|INTERRES
   125   64   65 1    
   126   64  130 1    
   127   65   66 1    
   128   65   69 1    
   129   65  131 1    
   130   66   67 am   BACKBONE|DICT|INTERRES
   131   66   68 2    
   132   67  132 1    
   133   67  133 1    
   134   69   70 1    
   135   69  134 1    
   136   69  135 1    
   137   70   71 1    
   138   71  136 1    
   139   71  137 1    
@<TRIPOS>SUBSTRUCTURE
     1 UNK         1 GROUP             0       ****    0 ROOT    
