@<TRIPOS>MOLECULE
3R136
137   139    1
SMALL
USER_CHARGES


@<TRIPOS>ATOM
      1 CA         28.5079   23.4903   -3.4556 C.3       0 UNK        -0.1979 
      2 C          28.8938   24.3169   -2.2387 C.2       0 UNK         0.4864 
      3 O          28.2298   24.2192   -1.2062 O.2       0 UNK        -0.5359 
      4 N          29.9575   25.1271   -2.3582 N.am      1 UNK        -0.4318 
      5 CA         30.4890   26.0248   -1.3208 C.3       1 UNK         0.0824 
      6 C6         31.0730   25.2661   -0.1021 C.3       12 UNK        -0.0944 
      7 S7         32.4375   24.1451   -0.5685 S.3       12 UNK        -0.2672 
      8 C8         33.5257   24.2418    0.8961 C.3       12 UNK         0.0333 
      9 C9         32.8051   23.9968    2.2202 C.ar      12 UNK        -0.0807 
     10 C10        33.1283   24.7753    3.3356 C.ar      12 UNK        -0.0894 
     11 C11        32.4485   24.6058    4.5452 C.ar      12 UNK        -0.0804 
     12 C12        31.4375   23.6445    4.6386 C.ar      12 UNK        -0.0824 
     13 C13        31.1172   22.8454    3.5368 C.ar      12 UNK        -0.0762 
     14 C14        31.8171   23.0128    2.3395 C.ar      12 UNK        -0.0782 
     15 C15        30.0161   21.7990    3.6313 C.3       12 UNK         0.0230 
     16 S16        28.5721   22.2266    2.6038 S.3       12 UNK        -0.2608 
     17 C17        27.9110   23.6959    3.4640 C.3       12 UNK        -0.0989 
     18 CA         27.8058   24.9458    2.5419 C.3       5 UNK         0.0716 
     19 N          26.9927   24.7173    1.3355 N.am      5 UNK        -0.4135 
     20 C          25.6862   24.4179    1.2999 C.2       4 UNK         0.5031 
     21 O          24.9738   24.3067    2.3002 O.2       4 UNK        -0.5229 
     22 CA         25.0806   24.2294   -0.1032 C.3       4 UNK         0.0329 
     23 CB         23.7533   23.4396   -0.0861 C.3       4 UNK        -0.2001 
     24 N          24.9294   25.5101   -0.8066 N.am      4 UNK        -0.4303 
     25 C          24.1426   26.5444   -0.4742 C.2       3 UNK         0.5044 
     26 O          23.3961   26.5578    0.5049 O.2       3 UNK        -0.5152 
     27 CA         24.2002   27.7756   -1.4041 C.3       3 UNK         0.0319 
     28 CB         23.1327   28.8319   -1.0592 C.3       3 UNK        -0.2001 
     29 N          25.5163   28.4211   -1.4026 N.am      3 UNK        -0.4354 
     30 C          26.6014   27.9609   -2.0358 C.2       2 UNK         0.4964 
     31 O          26.5987   26.9242   -2.7046 O.2       2 UNK        -0.5047 
     32 CA         27.8968   28.7924   -1.9401 C.3       2 UNK         0.0288 
     33 CB         27.9262   29.8255   -0.7884 C.3       2 UNK        -0.2113 
     34 N          29.0663   27.9085   -1.9147 N.am      2 UNK        -0.4145 
     35 C          29.4233   27.0711   -0.9291 C.2       1 UNK         0.5006 
     36 O          28.9182   27.0651    0.1967 O.2       1 UNK        -0.5103 
     37 C          27.3594   26.2076    3.3207 C.2       5 UNK         0.5055 
     38 O          27.4770   26.2492    4.5481 O.2       5 UNK        -0.5220 
     39 N          26.8498   27.2242    2.6102 N.am      6 UNK        -0.4450 
     40 CA         26.3181   28.4620    3.1871 C.3       6 UNK         0.0367 
     41 CB         25.2359   29.0424    2.2616 C.3       6 UNK        -0.1929 
     42 C          27.4473   29.4628    3.4748 C.2       6 UNK         0.5070 
     43 O          27.5633   30.4786    2.7899 O.2       6 UNK        -0.5237 
     44 N          28.2867   29.1217    4.4606 N.am      7 UNK        -0.4739 
     45 CA         29.4537   29.8605    4.9679 C.3       7 UNK         0.0276 
     46 CB         29.0562   31.2593    5.4825 C.3       7 UNK        -0.1927 
     47 C          30.6600   29.9319    4.0100 C.2       7 UNK         0.5013 
     48 O          31.7129   30.4076    4.4405 O.2       7 UNK        -0.5193 
     49 N          30.5117   29.4204    2.7767 N.am      8 UNK        -0.4253 
     50 CA         31.5275   29.2857    1.7267 C.3       8 UNK         0.0242 
     51 CB         32.5185   28.1625    2.1079 C.3       8 UNK        -0.2000 
     52 C          32.2066   30.6299    1.3965 C.2       8 UNK         0.4948 
     53 O          31.5224   31.6534    1.3273 O.2       8 UNK        -0.5275 
     54 N          33.5336   30.6117    1.2064 N.am      9 UNK        -0.4246 
     55 CA         34.3692   31.8134    1.1887 C.3       9 UNK         0.0261 
     56 CB         35.7475   31.4866    0.5896 C.3       9 UNK        -0.1959 
     57 C          34.5034   32.4054    2.6032 C.2       9 UNK         0.5033 
     58 O          34.3310   33.6138    2.7685 O.2       9 UNK        -0.5390 
     59 N          34.7735   31.5332    3.5856 N.am      10 UNK        -0.4215 
     60 CA         34.8354   31.8198    5.0162 C.3       10 UNK         0.0240 
     61 CB         35.9483   32.8421    5.3465 C.3       10 UNK        -0.1982 
     62 C          35.0560   30.4999    5.7692 C.2       10 UNK         0.4970 
     63 O          36.2071   30.1209    5.9952 O.2       10 UNK        -0.4916 
     64 N          33.9655   29.8172    6.1434 N.am      11 UNK        -0.4279 
     65 CA         33.9976   28.6516    7.0518 C.3       11 UNK         0.1003 
     66 C          34.5005   28.9691    8.4927 C.2       11 UNK         0.5709 
     67 N          34.4469   30.2120    8.9584 N.am      11 UNK        -0.7358 
     68 O          34.9497   28.0685    9.1977 O.2       11 UNK        -0.4999 
     69 C69        32.6352   27.9111    7.1284 C.3       12 UNK        -0.0954 
     70 S70        32.1356   27.1460    5.5561 S.3       12 UNK        -0.2268 
     71 C71        32.8047   25.4687    5.7453 C.3       12 UNK         0.0203 
     72 H72        29.1965   23.6399   -4.2869 H         1 UNK         0.0888 
     73 H73        28.5056   22.4305   -3.2026 H         1 UNK         0.0888 
     74 H74        27.5072   23.7648   -3.7887 H         1 UNK         0.0888 
     75 H75        30.4571   25.1444   -3.2362 H         1 UNK         0.3017 
     76 H76        31.3093   26.5809   -1.7779 H         1 UNK         0.0873 
     77 H77        31.4413   25.9773    0.6352 H         1 UNK         0.0745 
     78 H78        30.3040   24.6780    0.4004 H         1 UNK         0.0745 
     79 H79        34.0023   25.2234    0.8994 H         1 UNK         0.0705 
     80 H80        34.3259   23.5085    0.7896 H         1 UNK         0.0705 
     81 H81        33.8977   25.5319    3.2618 H         1 UNK         0.1334 
     82 H82        30.9007   23.5193    5.5692 H         1 UNK         0.1417 
     83 H83        31.5631   22.3961    1.4881 H         1 UNK         0.1562 
     84 H84        29.6950   21.6578    4.6646 H         1 UNK         0.0748 
     85 H85        30.4101   20.8370    3.3006 H         1 UNK         0.0748 
     86 H86        28.5464   23.9139    4.3236 H         1 UNK         0.0940 
     87 H87        26.9353   23.4393    3.8794 H         1 UNK         0.0940 
     88 H88        28.8121   25.1704    2.1869 H         1 UNK         0.0703 
     89 H89        27.5013   24.7402    0.4520 H         1 UNK         0.3081 
     90 H90        25.7881   23.6358   -0.6823 H         1 UNK         0.0719 
     91 H91        22.9776   23.9474    0.4875 H         1 UNK         0.0809 
     92 H92        23.3740   23.2807   -1.0954 H         1 UNK         0.0809 
     93 H93        23.8957   22.4574    0.3659 H         1 UNK         0.0809 
     94 H94        25.5511   25.6524   -1.5982 H         1 UNK         0.2990 
     95 H95        23.9891   27.4203   -2.4153 H         1 UNK         0.0690 
     96 H96        23.1415   29.6537   -1.7755 H         1 UNK         0.0788 
     97 H97        23.2821   29.2524   -0.0642 H         1 UNK         0.0788 
     98 H98        22.1323   28.3973   -1.0818 H         1 UNK         0.0788 
     99 H99        25.5976   29.2784   -0.8766 H         1 UNK         0.2993 
    100 H100       27.9602   29.3479   -2.8770 H         1 UNK         0.0949 
    101 H101       27.7640   29.3665    0.1863 H         1 UNK         0.0767 
    102 H102       28.8871   30.3392   -0.7485 H         1 UNK         0.0767 
    103 H103       27.1646   30.5943   -0.9222 H         1 UNK         0.0767 
    104 H104       29.5210   27.7888   -2.8090 H         1 UNK         0.3013 
    105 H105       26.8764   27.1538    1.6021 H         1 UNK         0.3121 
    106 H106       25.8350   28.2345    4.1401 H         1 UNK         0.0774 
    107 H107       24.8328   29.9708    2.6683 H         1 UNK         0.0815 
    108 H108       25.6246   29.2653    1.2702 H         1 UNK         0.0815 
    109 H109       24.4003   28.3521    2.1543 H         1 UNK         0.0815 
    110 H110       28.1279   28.2142    4.8890 H         1 UNK         0.2987 
    111 H111       29.8034   29.2879    5.8283 H         1 UNK         0.0949 
    112 H112       28.7520   31.9205    4.6707 H         1 UNK         0.0806 
    113 H113       28.2356   31.2024    6.1975 H         1 UNK         0.0806 
    114 H114       29.8938   31.7397    5.9899 H         1 UNK         0.0806 
    115 H115       29.5818   29.1214    2.5209 H         1 UNK         0.3010 
    116 H116       30.9957   28.9796    0.8255 H         1 UNK         0.0829 
    117 H117       31.9827   27.2708    2.4315 H         1 UNK         0.0813 
    118 H118       33.1448   27.8713    1.2641 H         1 UNK         0.0813 
    119 H119       33.1702   28.4551    2.9324 H         1 UNK         0.0813 
    120 H120       34.0090   29.7217    1.2313 H         1 UNK         0.3038 
    121 H121       33.8917   32.5618    0.5521 H         1 UNK         0.0769 
    122 H122       36.3788   32.3760    0.5627 H         1 UNK         0.0811 
    123 H123       35.6575   31.1246   -0.4348 H         1 UNK         0.0811 
    124 H124       36.2779   30.7290    1.1676 H         1 UNK         0.0811 
    125 H125       34.8848   30.5587    3.3451 H         1 UNK         0.3204 
    126 H126       33.8747   32.2358    5.3268 H         1 UNK         0.0748 
    127 H127       36.9099   32.5406    4.9294 H         1 UNK         0.0771 
    128 H128       35.7151   33.8351    4.9638 H         1 UNK         0.0771 
    129 H129       36.0776   32.9440    6.4250 H         1 UNK         0.0771 
    130 H130       33.0537   30.1151    5.8063 H         1 UNK         0.2980 
    131 H131       34.7243   27.9509    6.6361 H         1 UNK         0.0545 
    132 H132       34.0680   30.9554    8.3949 H         1 UNK         0.3459 
    133 H133       34.7781   30.4033    9.8908 H         1 UNK         0.3459 
    134 H134       32.6542   27.1290    7.8901 H         1 UNK         0.0616 
    135 H135       31.8489   28.6041    7.4324 H         1 UNK         0.0616 
    136 H136       33.8890   25.5209    5.8540 H         1 UNK         0.0634 
    137 H137       32.4183   25.0248    6.6641 H         1 UNK         0.0634 
@<TRIPOS>BOND
     1    1    2 1    
     2    1   72 1    
     3    1   73 1    
     4    1   74 1    
     5    2    3 2    
     6    2    4 am   BACKBONE|DICT|INTERRES
     7    4    5 1    
     8    4   75 1    
     9    5    6 1    
    10    5   35 1    
    11    5   76 1    
    12    6    7 1    
    13    6   77 1    
    14    6   78 1    
    15    7    8 1    
    16    8    9 1    
    17    8   79 1    
    18    8   80 1    
    19    9   10 ar   
    20    9   14 ar   
    21   10   11 ar   
    22   10   81 1    
    23   11   12 ar   
    24   11   71 1    
    25   12   13 ar   
    26   12   82 1    
    27   13   14 ar   
    28   13   15 1    
    29   14   83 1    
    30   15   16 1    
    31   15   84 1    
    32   15   85 1    
    33   16   17 1    
    34   17   18 1    
    35   17   86 1    
    36   17   87 1    
    37   18   19 1    
    38   18   37 1    
    39   18   88 1    
    40   19   20 am   BACKBONE|DICT|INTERRES
    41   19   89 1    
    42   20   21 2    
    43   20   22 1    
    44   22   23 1    
    45   22   24 1    
    46   22   90 1    
    47   23   91 1    
    48   23   92 1    
    49   23   93 1    
    50   24   25 am   BACKBONE|DICT|INTERRES
    51   24   94 1    
    52   25   26 2    
    53   25   27 1    
    54   27   28 1    
    55   27   29 1    
    56   27   95 1    
    57   28   96 1    
    58   28   97 1    
    59   28   98 1    
    60   29   30 am   BACKBONE|DICT|INTERRES
    61   29   99 1    
    62   30   31 2    
    63   30   32 1    
    64   32   33 1    
    65   32   34 1    
    66   32  100 1    
    67   33  101 1    
    68   33  102 1    
    69   33  103 1    
    70   34   35 am   BACKBONE|DICT|INTERRES
    71   34  104 1    
    72   35   36 2    
    73   37   38 2    
    74   37   39 am   BACKBONE|DICT|INTERRES
    75   39   40 1    
    76   39  105 1    
    77   40   41 1    
    78   40   42 1    
    79   40  106 1    
    80   41  107 1    
    81   41  108 1    
    82   41  109 1    
    83   42   43 2    
    84   42   44 am   BACKBONE|DICT|INTERRES
    85   44   45 1    
    86   44  110 1    
    87   45   46 1    
    88   45   47 1    
    89   45  111 1    
    90   46  112 1    
    91   46  113 1    
    92   46  114 1    
    93   47   48 2    
    94   47   49 am   BACKBONE|DICT|INTERRES
    95   49   50 1    
    96   49  115 1    
    97   50   51 1    
    98   50   52 1    
    99   50  116 1    
   100   51  117 1    
   101   51  118 1    
   102   51  119 1    
   103   52   53 2    
   104   52   54 am   BACKBONE|DICT|INTERRES
   105   54   55 1    
   106   54  120 1    
   107   55   56 1    
   108   55   57 1    
   109   55  121 1    
   110   56  122 1    
   111   56  123 1    
   112   56  124 1    
   113   57   58 2    
   114   57   59 am   BACKBONE|DICT|INTERRES
   115   59   60 1    
   116   59  125 1    
   117   60   61 1    
   118   60   62 1    
   119   60  126 1    
   120   61  127 1    
   121   61  128 1    
   122   61  129 1    
   123   62   63 2    
   124   62   64 am   BACKBONE|DICT|INTERRES
   125   64   65 1    
   126   64  130 1    
   127   65   66 1    
   128   65   69 1    
   129   65  131 1    
   130   66   67 am   BACKBONE|DICT|INTERRES
   131   66   68 2    
   132   67  132 1    
   133   67  133 1    
   134   69   70 1    
   135   69  134 1    
   136   69  135 1    
   137   70   71 1    
   138   71  136 1    
   139   71  137 1    
@<TRIPOS>SUBSTRUCTURE
     1 UNK         1 GROUP             0       ****    0 ROOT    
