@<TRIPOS>MOLECULE
3R136
137   139    1
SMALL
USER_CHARGES


@<TRIPOS>ATOM
      1 CA         27.6877   22.3218    3.9004 C.3       0 UNK        -0.1979 
      2 C          28.1227   21.7786    2.5475 C.2       0 UNK         0.4864 
      3 O          27.6026   20.7553    2.1018 O.2       0 UNK        -0.5359 
      4 N          29.0682   22.4612    1.8879 N.am      1 UNK        -0.4318 
      5 CA         29.5798   22.1169    0.5539 C.3       1 UNK         0.0824 
      6 C6         30.9465   22.7993    0.2900 C.3       12 UNK        -0.0944 
      7 S7         32.3481   21.9072    1.0502 S.3       12 UNK        -0.2672 
      8 C8         32.3062   22.3999    2.8089 C.3       12 UNK         0.0333 
      9 C9         32.2690   23.9076    3.0310 C.ar      12 UNK        -0.0807 
     10 C10        33.1977   24.7485    2.4084 C.ar      12 UNK        -0.0894 
     11 C11        33.1554   26.1333    2.6000 C.ar      12 UNK        -0.0804 
     12 C12        32.1668   26.6723    3.4339 C.ar      12 UNK        -0.0824 
     13 C13        31.2432   25.8416    4.0764 C.ar      12 UNK        -0.0762 
     14 C14        31.3053   24.4609    3.8782 C.ar      12 UNK        -0.0782 
     15 C15        30.1820   26.4328    4.9937 C.3       12 UNK         0.0230 
     16 S16        28.5156   26.3777    4.2613 S.3       12 UNK        -0.2608 
     17 C17        28.6799   27.5290    2.8542 C.3       12 UNK        -0.0989 
     18 CA         27.7989   27.0782    1.6617 C.3       5 UNK         0.0716 
     19 N          26.3541   27.1226    1.9328 N.am      5 UNK        -0.4135 
     20 C          25.5938   28.1791    2.2585 C.2       4 UNK         0.5031 
     21 O          26.0351   29.3255    2.3645 O.2       4 UNK        -0.5229 
     22 CA         24.0875   27.9166    2.4803 C.3       4 UNK         0.0329 
     23 CB         23.2252   29.1827    2.2864 C.3       4 UNK        -0.2001 
     24 N          23.5666   26.7976    1.6826 N.am      4 UNK        -0.4303 
     25 C          23.5471   26.6983    0.3450 C.2       3 UNK         0.5044 
     26 O          23.8962   27.5910   -0.4297 O.2       3 UNK        -0.5152 
     27 CA         23.1258   25.3303   -0.2205 C.3       3 UNK         0.0319 
     28 CB         21.9701   25.4752   -1.2249 C.3       3 UNK        -0.2001 
     29 N          24.2542   24.6561   -0.8697 N.am      3 UNK        -0.4354 
     30 C          25.4052   24.3293   -0.2660 C.2       2 UNK         0.4964 
     31 O          25.6248   24.5041    0.9383 O.2       2 UNK        -0.5047 
     32 CA         26.5012   23.7286   -1.1556 C.3       2 UNK         0.0288 
     33 CB         26.9859   24.7360   -2.2173 C.3       2 UNK        -0.2113 
     34 N          27.6066   23.3327   -0.2898 N.am      2 UNK        -0.4145 
     35 C          28.5683   22.4464   -0.5694 C.2       1 UNK         0.5006 
     36 O          28.6751   21.8821   -1.6600 O.2       1 UNK        -0.5103 
     37 C          28.2091   27.7788    0.3497 C.2       5 UNK         0.5055 
     38 O          29.0107   27.2091   -0.3908 O.2       5 UNK        -0.5220 
     39 N          27.6523   28.9691    0.0764 N.am      6 UNK        -0.4450 
     40 CA         27.8344   29.7908   -1.1288 C.3       6 UNK         0.0367 
     41 CB         27.1358   29.1249   -2.3335 C.3       6 UNK        -0.1929 
     42 C          29.3139   30.1308   -1.4058 C.2       6 UNK         0.5070 
     43 O          29.7731   30.0353   -2.5459 O.2       6 UNK        -0.5237 
     44 N          30.0387   30.4952   -0.3432 N.am      7 UNK        -0.4739 
     45 CA         31.4814   30.7247   -0.3388 C.3       7 UNK         0.0276 
     46 CB         32.2003   29.3811   -0.1053 C.3       7 UNK        -0.1927 
     47 C          31.8326   31.7945    0.7079 C.2       7 UNK         0.5013 
     48 O          30.9607   32.5778    1.0961 O.2       7 UNK        -0.5193 
     49 N          33.0985   31.8232    1.1471 N.am      8 UNK        -0.4253 
     50 CA         33.6564   32.7589    2.1304 C.3       8 UNK         0.0242 
     51 CB         35.1926   32.7331    2.0162 C.3       8 UNK        -0.2000 
     52 C          33.1721   32.4721    3.5669 C.2       8 UNK         0.4948 
     53 O          33.9808   32.1546    4.4430 O.2       8 UNK        -0.5275 
     54 N          31.8525   32.5759    3.7756 N.am      9 UNK        -0.4246 
     55 CA         31.1191   32.2662    5.0051 C.3       9 UNK         0.0261 
     56 CB         31.4228   33.3141    6.1016 C.3       9 UNK        -0.1959 
     57 C          31.3649   30.8051    5.4249 C.2       9 UNK         0.5033 
     58 O          31.0144   29.9029    4.6646 O.2       9 UNK        -0.5390 
     59 N          31.9770   30.5991    6.5973 N.am      10 UNK        -0.4215 
     60 CA         32.3731   29.2907    7.1208 C.3       10 UNK         0.0240 
     61 CB         32.5426   29.4031    8.6459 C.3       10 UNK        -0.1982 
     62 C          33.6530   28.7192    6.4777 C.2       10 UNK         0.4970 
     63 O          33.9538   27.5502    6.7208 O.2       10 UNK        -0.4916 
     64 N          34.3971   29.5376    5.7168 N.am      11 UNK        -0.4279 
     65 CA         35.6964   29.2107    5.0990 C.3       11 UNK         0.1003 
     66 C          36.8510   28.9446    6.1147 C.2       11 UNK         0.5709 
     67 N          36.7405   29.3722    7.3674 N.am      11 UNK        -0.7358 
     68 O          37.8813   28.3752    5.7612 O.2       11 UNK        -0.4999 
     69 C69        35.5943   28.1179    3.9957 C.3       12 UNK        -0.0954 
     70 S70        34.5186   28.6259    2.6172 S.3       12 UNK        -0.2268 
     71 C71        34.1616   27.0078    1.8504 C.3       12 UNK         0.0203 
     72 H72        28.1614   23.2754    4.1309 H         1 UNK         0.0888 
     73 H73        26.6086   22.4735    3.9125 H         1 UNK         0.0888 
     74 H74        27.9424   21.6146    4.6892 H         1 UNK         0.0888 
     75 H75        29.4641   23.2924    2.3019 H         1 UNK         0.3017 
     76 H76        29.7227   21.0345    0.5155 H         1 UNK         0.0873 
     77 H77        31.1656   22.8240   -0.7797 H         1 UNK         0.0745 
     78 H78        30.9393   23.8440    0.6059 H         1 UNK         0.0745 
     79 H79        31.4532   21.9139    3.2842 H         1 UNK         0.0705 
     80 H80        33.1931   21.9991    3.3010 H         1 UNK         0.0705 
     81 H81        33.9473   24.3206    1.7566 H         1 UNK         0.1334 
     82 H82        32.1067   27.7411    3.5852 H         1 UNK         0.1417 
     83 H83        30.5974   23.8210    4.3868 H         1 UNK         0.1562 
     84 H84        30.4191   27.4645    5.2472 H         1 UNK         0.0748 
     85 H85        30.1733   25.8829    5.9357 H         1 UNK         0.0748 
     86 H86        29.7263   27.5733    2.5506 H         1 UNK         0.0940 
     87 H87        28.4262   28.5372    3.1853 H         1 UNK         0.0940 
     88 H88        28.0115   26.0213    1.4913 H         1 UNK         0.0703 
     89 H89        25.8875   26.2289    1.8071 H         1 UNK         0.3081 
     90 H90        23.9921   27.6134    3.5239 H         1 UNK         0.0719 
     91 H91        23.3268   29.5929    1.2812 H         1 UNK         0.0809 
     92 H92        22.1694   28.9747    2.4592 H         1 UNK         0.0809 
     93 H93        23.5177   29.9664    2.9864 H         1 UNK         0.0809 
     94 H94        23.2822   25.9865    2.2155 H         1 UNK         0.2990 
     95 H95        22.7838   24.6944    0.5989 H         1 UNK         0.0690 
     96 H96        21.6285   24.5032   -1.5812 H         1 UNK         0.0788 
     97 H97        22.2600   26.0688   -2.0931 H         1 UNK         0.0788 
     98 H98        21.1139   25.9698   -0.7640 H         1 UNK         0.0788 
     99 H99        24.1691   24.5019   -1.8640 H         1 UNK         0.2993 
    100 H100       26.0963   22.8393   -1.6434 H         1 UNK         0.0949 
    101 H101       26.1851   25.0033   -2.9074 H         1 UNK         0.0767 
    102 H102       27.3425   25.6589   -1.7610 H         1 UNK         0.0767 
    103 H103       27.7989   24.3262   -2.8166 H         1 UNK         0.0767 
    104 H104       27.5315   23.6985    0.6509 H         1 UNK         0.3013 
    105 H105       27.0237   29.3436    0.7849 H         1 UNK         0.3121 
    106 H106       27.3315   30.7397   -0.9363 H         1 UNK         0.0774 
    107 H107       27.1568   29.7765   -3.2078 H         1 UNK         0.0815 
    108 H108       27.6198   28.1884   -2.6130 H         1 UNK         0.0815 
    109 H109       26.0898   28.9082   -2.1150 H         1 UNK         0.0815 
    110 H110       29.5757   30.6311    0.5454 H         1 UNK         0.2987 
    111 H111       31.7858   31.1264   -1.3078 H         1 UNK         0.0949 
    112 H112       31.8816   28.6302   -0.8289 H         1 UNK         0.0806 
    113 H113       33.2812   29.4762   -0.2090 H         1 UNK         0.0806 
    114 H114       31.9888   28.9860    0.8894 H         1 UNK         0.0806 
    115 H115       33.7324   31.1137    0.8093 H         1 UNK         0.3010 
    116 H116       33.3206   33.7662    1.8745 H         1 UNK         0.0829 
    117 H117       35.5223   33.0058    1.0136 H         1 UNK         0.0813 
    118 H118       35.6478   33.4425    2.7087 H         1 UNK         0.0813 
    119 H119       35.5976   31.7468    2.2476 H         1 UNK         0.0813 
    120 H120       31.2822   32.7604    2.9534 H         1 UNK         0.3038 
    121 H121       30.0581   32.3385    4.7614 H         1 UNK         0.0769 
    122 H122       32.4760   33.3310    6.3842 H         1 UNK         0.0811 
    123 H123       30.8354   33.1273    7.0016 H         1 UNK         0.0811 
    124 H124       31.1639   34.3163    5.7596 H         1 UNK         0.0811 
    125 H125       32.2434   31.4068    7.1416 H         1 UNK         0.3204 
    126 H126       31.5681   28.5808    6.9255 H         1 UNK         0.0748 
    127 H127       31.6213   29.7365    9.1241 H         1 UNK         0.0771 
    128 H128       32.7992   28.4374    9.0841 H         1 UNK         0.0771 
    129 H129       33.3342   30.1034    8.9155 H         1 UNK         0.0771 
    130 H130       34.0706   30.4805    5.5301 H         1 UNK         0.2980 
    131 H131       36.0036   30.1301    4.5995 H         1 UNK         0.0545 
    132 H132       37.4961   29.2067    8.0133 H         1 UNK         0.3459 
    133 H133       35.9125   29.8581    7.6702 H         1 UNK         0.3459 
    134 H134       36.5745   27.9046    3.5665 H         1 UNK         0.0616 
    135 H135       35.2332   27.1776    4.4144 H         1 UNK         0.0616 
    136 H136       33.7786   27.1771    0.8443 H         1 UNK         0.0634 
    137 H137       35.1048   26.4724    1.7303 H         1 UNK         0.0634 
@<TRIPOS>BOND
     1    1    2 1    
     2    1   72 1    
     3    1   73 1    
     4    1   74 1    
     5    2    3 2    
     6    2    4 am   BACKBONE|DICT|INTERRES
     7    4    5 1    
     8    4   75 1    
     9    5    6 1    
    10    5   35 1    
    11    5   76 1    
    12    6    7 1    
    13    6   77 1    
    14    6   78 1    
    15    7    8 1    
    16    8    9 1    
    17    8   79 1    
    18    8   80 1    
    19    9   10 ar   
    20    9   14 ar   
    21   10   11 ar   
    22   10   81 1    
    23   11   12 ar   
    24   11   71 1    
    25   12   13 ar   
    26   12   82 1    
    27   13   14 ar   
    28   13   15 1    
    29   14   83 1    
    30   15   16 1    
    31   15   84 1    
    32   15   85 1    
    33   16   17 1    
    34   17   18 1    
    35   17   86 1    
    36   17   87 1    
    37   18   19 1    
    38   18   37 1    
    39   18   88 1    
    40   19   20 am   BACKBONE|DICT|INTERRES
    41   19   89 1    
    42   20   21 2    
    43   20   22 1    
    44   22   23 1    
    45   22   24 1    
    46   22   90 1    
    47   23   91 1    
    48   23   92 1    
    49   23   93 1    
    50   24   25 am   BACKBONE|DICT|INTERRES
    51   24   94 1    
    52   25   26 2    
    53   25   27 1    
    54   27   28 1    
    55   27   29 1    
    56   27   95 1    
    57   28   96 1    
    58   28   97 1    
    59   28   98 1    
    60   29   30 am   BACKBONE|DICT|INTERRES
    61   29   99 1    
    62   30   31 2    
    63   30   32 1    
    64   32   33 1    
    65   32   34 1    
    66   32  100 1    
    67   33  101 1    
    68   33  102 1    
    69   33  103 1    
    70   34   35 am   BACKBONE|DICT|INTERRES
    71   34  104 1    
    72   35   36 2    
    73   37   38 2    
    74   37   39 am   BACKBONE|DICT|INTERRES
    75   39   40 1    
    76   39  105 1    
    77   40   41 1    
    78   40   42 1    
    79   40  106 1    
    80   41  107 1    
    81   41  108 1    
    82   41  109 1    
    83   42   43 2    
    84   42   44 am   BACKBONE|DICT|INTERRES
    85   44   45 1    
    86   44  110 1    
    87   45   46 1    
    88   45   47 1    
    89   45  111 1    
    90   46  112 1    
    91   46  113 1    
    92   46  114 1    
    93   47   48 2    
    94   47   49 am   BACKBONE|DICT|INTERRES
    95   49   50 1    
    96   49  115 1    
    97   50   51 1    
    98   50   52 1    
    99   50  116 1    
   100   51  117 1    
   101   51  118 1    
   102   51  119 1    
   103   52   53 2    
   104   52   54 am   BACKBONE|DICT|INTERRES
   105   54   55 1    
   106   54  120 1    
   107   55   56 1    
   108   55   57 1    
   109   55  121 1    
   110   56  122 1    
   111   56  123 1    
   112   56  124 1    
   113   57   58 2    
   114   57   59 am   BACKBONE|DICT|INTERRES
   115   59   60 1    
   116   59  125 1    
   117   60   61 1    
   118   60   62 1    
   119   60  126 1    
   120   61  127 1    
   121   61  128 1    
   122   61  129 1    
   123   62   63 2    
   124   62   64 am   BACKBONE|DICT|INTERRES
   125   64   65 1    
   126   64  130 1    
   127   65   66 1    
   128   65   69 1    
   129   65  131 1    
   130   66   67 am   BACKBONE|DICT|INTERRES
   131   66   68 2    
   132   67  132 1    
   133   67  133 1    
   134   69   70 1    
   135   69  134 1    
   136   69  135 1    
   137   70   71 1    
   138   71  136 1    
   139   71  137 1    
@<TRIPOS>SUBSTRUCTURE
     1 UNK         1 GROUP             0       ****    0 ROOT    
