@<TRIPOS>MOLECULE
3R136
137   139    1
SMALL
USER_CHARGES


@<TRIPOS>ATOM
      1 CA         33.9112   26.9684   -3.0248 C.3       0 UNK        -0.1979 
      2 C          32.6071   27.0817   -2.2503 C.2       0 UNK         0.4864 
      3 O          32.3575   28.1175   -1.6309 O.2       0 UNK        -0.5359 
      4 N          31.7833   26.0239   -2.2724 N.am      1 UNK        -0.4318 
      5 CA         30.4602   25.9811   -1.6406 C.3       1 UNK         0.0824 
      6 C6         29.9486   24.5230   -1.4591 C.3       12 UNK        -0.0944 
      7 S7         29.3800   24.2214    0.2469 S.3       12 UNK        -0.2672 
      8 C8         30.7469   23.2169    0.9036 C.3       12 UNK         0.0333 
      9 C9         30.7344   23.2151    2.4236 C.ar      12 UNK        -0.0807 
     10 C10        31.5648   24.0918    3.1273 C.ar      12 UNK        -0.0894 
     11 C11        31.5448   24.1221    4.5231 C.ar      12 UNK        -0.0804 
     12 C12        30.6766   23.2742    5.2177 C.ar      12 UNK        -0.0824 
     13 C13        29.8478   22.3831    4.5269 C.ar      12 UNK        -0.0762 
     14 C14        29.8935   22.3469    3.1281 C.ar      12 UNK        -0.0782 
     15 C15        28.9081   21.4608    5.2972 C.3       12 UNK         0.0230 
     16 S16        27.1458   21.7657    4.9309 S.3       12 UNK        -0.2608 
     17 C17        26.9628   23.5370    5.3391 C.3       12 UNK        -0.0989 
     18 CA         27.0270   24.4149    4.0609 C.3       5 UNK         0.0716 
     19 N          25.9858   24.1163    3.0737 N.am      5 UNK        -0.4135 
     20 C          24.6701   24.3299    3.1855 C.2       4 UNK         0.5031 
     21 O          24.1202   24.7840    4.1908 O.2       4 UNK        -0.5229 
     22 CA         23.8380   24.0082    1.9272 C.3       4 UNK         0.0329 
     23 CB         22.3831   23.6437    2.2754 C.3       4 UNK        -0.2001 
     24 N          23.8326   25.1142    0.9631 N.am      4 UNK        -0.4303 
     25 C          24.9006   25.5945    0.3109 C.2       3 UNK         0.5044 
     26 O          26.0379   25.1359    0.4351 O.2       3 UNK        -0.5152 
     27 CA         24.6658   26.7778   -0.6397 C.3       3 UNK         0.0319 
     28 CB         23.7157   27.8438   -0.0509 C.3       3 UNK        -0.2001 
     29 N          25.9614   27.3661   -0.9781 N.am      3 UNK        -0.4354 
     30 C          26.2269   28.1053   -2.0617 C.2       2 UNK         0.4964 
     31 O          25.3797   28.4169   -2.8997 O.2       2 UNK        -0.5047 
     32 CA         27.6750   28.5782   -2.2582 C.3       2 UNK         0.0288 
     33 CB         27.8844   29.9431   -1.5798 C.3       2 UNK        -0.2113 
     34 N          28.6420   27.6271   -1.7085 N.am      2 UNK        -0.4145 
     35 C          29.4633   26.8569   -2.4291 C.2       1 UNK         0.5006 
     36 O          29.4638   26.8154   -3.6629 O.2       1 UNK        -0.5103 
     37 C          27.1519   25.9273    4.3332 C.2       5 UNK         0.5055 
     38 O          27.3182   26.3503    5.4790 O.2       5 UNK        -0.5220 
     39 N          27.1080   26.7059    3.2475 N.am      6 UNK        -0.4450 
     40 CA         27.5632   28.0875    3.1729 C.3       6 UNK         0.0367 
     41 CB         26.3777   29.0200    2.8843 C.3       6 UNK        -0.1929 
     42 C          28.5631   28.1057    2.0173 C.2       6 UNK         0.5070 
     43 O          28.3085   27.4572    0.9990 O.2       6 UNK        -0.5237 
     44 N          29.6783   28.8159    2.1816 N.am      7 UNK        -0.4739 
     45 CA         30.8089   28.7751    1.2598 C.3       7 UNK         0.0276 
     46 CB         31.7372   27.6144    1.6685 C.3       7 UNK        -0.1927 
     47 C          31.5570   30.1071    1.2685 C.2       7 UNK         0.5013 
     48 O          31.2817   30.9650    2.1135 O.2       7 UNK        -0.5193 
     49 N          32.5117   30.2354    0.3378 N.am      8 UNK        -0.4253 
     50 CA         33.4576   31.3483    0.2282 C.3       8 UNK         0.0242 
     51 CB         34.4603   31.0481   -0.8975 C.3       8 UNK        -0.2000 
     52 C          34.1929   31.6117    1.5547 C.2       8 UNK         0.4948 
     53 O          34.6832   30.6669    2.1786 O.2       8 UNK        -0.5275 
     54 N          34.2036   32.8849    1.9740 N.am      9 UNK        -0.4246 
     55 CA         34.7133   33.3873    3.2577 C.3       9 UNK         0.0261 
     56 CB         36.2445   33.2081    3.3508 C.3       9 UNK        -0.1959 
     57 C          33.9768   32.8203    4.4923 C.2       9 UNK         0.5033 
     58 O          34.5552   32.8030    5.5803 O.2       9 UNK        -0.5390 
     59 N          32.7255   32.3621    4.3133 N.am      10 UNK        -0.4215 
     60 CA         31.8368   31.7806    5.3297 C.3       10 UNK         0.0240 
     61 CB         31.3558   32.8702    6.3122 C.3       10 UNK        -0.1982 
     62 C          32.4511   30.5572    6.0397 C.2       10 UNK         0.4970 
     63 O          32.3143   30.4250    7.2572 O.2       10 UNK        -0.4916 
     64 N          33.1440   29.7119    5.2626 N.am      11 UNK        -0.4279 
     65 CA         33.9497   28.5655    5.7207 C.3       11 UNK         0.1003 
     66 C          35.2541   28.9562    6.4856 C.2       11 UNK         0.5709 
     67 N          35.6484   30.2227    6.5604 N.am      11 UNK        -0.7358 
     68 O          35.9542   28.0839    6.9949 O.2       11 UNK        -0.4999 
     69 C69        33.1250   27.4802    6.4791 C.3       12 UNK        -0.0954 
     70 S70        31.8083   26.7208    5.4674 S.3       12 UNK        -0.2268 
     71 C71        32.4886   25.0443    5.2784 C.3       12 UNK         0.0203 
     72 H72        33.9576   27.7400   -3.7927 H         1 UNK         0.0888 
     73 H73        34.7581   27.1049   -2.3529 H         1 UNK         0.0888 
     74 H74        34.0153   25.9983   -3.5104 H         1 UNK         0.0888 
     75 H75        32.0288   25.2193   -2.8308 H         1 UNK         0.3017 
     76 H76        30.5830   26.4333   -0.6561 H         1 UNK         0.0873 
     77 H77        29.1274   24.2846   -2.1385 H         1 UNK         0.0745 
     78 H78        30.7279   23.7974   -1.6975 H         1 UNK         0.0745 
     79 H79        30.6660   22.1978    0.5226 H         1 UNK         0.0705 
     80 H80        31.6973   23.6112    0.5397 H         1 UNK         0.0705 
     81 H81        32.2320   24.7511    2.5896 H         1 UNK         0.1334 
     82 H82        30.6553   23.3028    6.2987 H         1 UNK         0.1417 
     83 H83        29.2496   21.6658    2.5880 H         1 UNK         0.1562 
     84 H84        29.0637   21.5574    6.3729 H         1 UNK         0.0748 
     85 H85        29.1447   20.4256    5.0477 H         1 UNK         0.0748 
     86 H86        27.7457   23.8174    6.0462 H         1 UNK         0.0940 
     87 H87        26.0166   23.6859    5.8615 H         1 UNK         0.0940 
     88 H88        27.9601   24.1763    3.5533 H         1 UNK         0.0703 
     89 H89        26.3259   23.8448    2.1588 H         1 UNK         0.3081 
     90 H90        24.2882   23.1395    1.4416 H         1 UNK         0.0719 
     91 H91        21.8474   24.4859    2.7154 H         1 UNK         0.0809 
     92 H92        21.8322   23.3196    1.3923 H         1 UNK         0.0809 
     93 H93        22.3489   22.8246    2.9952 H         1 UNK         0.0809 
     94 H94        22.9426   25.5668    0.8142 H         1 UNK         0.2990 
     95 H95        24.2236   26.3720   -1.5518 H         1 UNK         0.0690 
     96 H96        23.6759   28.7370   -0.6744 H         1 UNK         0.0788 
     97 H97        24.0168   28.1509    0.9499 H         1 UNK         0.0788 
     98 H98        22.6948   27.4675    0.0186 H         1 UNK         0.0788 
     99 H99        26.7180   27.1004   -0.3541 H         1 UNK         0.2993 
    100 H100       27.8355   28.7043   -3.3312 H         1 UNK         0.0949 
    101 H101       27.1942   30.6877   -1.9788 H         1 UNK         0.0767 
    102 H102       27.7211   29.8896   -0.5026 H         1 UNK         0.0767 
    103 H103       28.8956   30.3156   -1.7459 H         1 UNK         0.0767 
    104 H104       28.6519   27.5414   -0.6906 H         1 UNK         0.3013 
    105 H105       27.0260   26.2578    2.3404 H         1 UNK         0.3121 
    106 H106       28.0595   28.3869    4.0988 H         1 UNK         0.0774 
    107 H107       25.5821   28.8924    3.6184 H         1 UNK         0.0815 
    108 H108       26.6905   30.0641    2.9178 H         1 UNK         0.0815 
    109 H109       25.9580   28.8408    1.8951 H         1 UNK         0.0815 
    110 H110       29.8014   29.4130    2.9887 H         1 UNK         0.2987 
    111 H111       30.4496   28.6243    0.2411 H         1 UNK         0.0949 
    112 H112       32.5751   27.5048    0.9800 H         1 UNK         0.0806 
    113 H113       32.1547   27.7683    2.6637 H         1 UNK         0.0806 
    114 H114       31.2001   26.6665    1.6754 H         1 UNK         0.0806 
    115 H115       32.6255   29.4757   -0.3308 H         1 UNK         0.3010 
    116 H116       32.8823   32.2349   -0.0456 H         1 UNK         0.0829 
    117 H117       33.9543   30.9030   -1.8523 H         1 UNK         0.0813 
    118 H118       35.1653   31.8708   -1.0245 H         1 UNK         0.0813 
    119 H119       35.0410   30.1486   -0.6877 H         1 UNK         0.0813 
    120 H120       33.7644   33.5807    1.3858 H         1 UNK         0.3038 
    121 H121       34.5102   34.4593    3.2620 H         1 UNK         0.0769 
    122 H122       36.5253   32.1580    3.4389 H         1 UNK         0.0811 
    123 H123       36.6473   33.7238    4.2234 H         1 UNK         0.0811 
    124 H124       36.7472   33.6181    2.4749 H         1 UNK         0.0811 
    125 H125       32.3551   32.3376    3.3691 H         1 UNK         0.3204 
    126 H126       30.9600   31.4099    4.7972 H         1 UNK         0.0748 
    127 H127       30.9014   33.7080    5.7833 H         1 UNK         0.0771 
    128 H128       30.6044   32.4762    6.9977 H         1 UNK         0.0771 
    129 H129       32.1757   33.2601    6.9167 H         1 UNK         0.0771 
    130 H130       33.2346   29.9354    4.2812 H         1 UNK         0.2980 
    131 H131       34.3144   28.1017    4.8036 H         1 UNK         0.0545 
    132 H132       36.5026   30.4354    7.0495 H         1 UNK         0.3459 
    133 H133       35.1018   30.9787    6.1620 H         1 UNK         0.3459 
    134 H134       33.7821   26.6847    6.8338 H         1 UNK         0.0616 
    135 H135       32.6692   27.8919    7.3795 H         1 UNK         0.0616 
    136 H136       32.7004   24.6280    6.2646 H         1 UNK         0.0634 
    137 H137       33.4454   25.1035    4.7571 H         1 UNK         0.0634 
@<TRIPOS>BOND
     1    1    2 1    
     2    1   72 1    
     3    1   73 1    
     4    1   74 1    
     5    2    3 2    
     6    2    4 am   BACKBONE|DICT|INTERRES
     7    4    5 1    
     8    4   75 1    
     9    5    6 1    
    10    5   35 1    
    11    5   76 1    
    12    6    7 1    
    13    6   77 1    
    14    6   78 1    
    15    7    8 1    
    16    8    9 1    
    17    8   79 1    
    18    8   80 1    
    19    9   10 ar   
    20    9   14 ar   
    21   10   11 ar   
    22   10   81 1    
    23   11   12 ar   
    24   11   71 1    
    25   12   13 ar   
    26   12   82 1    
    27   13   14 ar   
    28   13   15 1    
    29   14   83 1    
    30   15   16 1    
    31   15   84 1    
    32   15   85 1    
    33   16   17 1    
    34   17   18 1    
    35   17   86 1    
    36   17   87 1    
    37   18   19 1    
    38   18   37 1    
    39   18   88 1    
    40   19   20 am   BACKBONE|DICT|INTERRES
    41   19   89 1    
    42   20   21 2    
    43   20   22 1    
    44   22   23 1    
    45   22   24 1    
    46   22   90 1    
    47   23   91 1    
    48   23   92 1    
    49   23   93 1    
    50   24   25 am   BACKBONE|DICT|INTERRES
    51   24   94 1    
    52   25   26 2    
    53   25   27 1    
    54   27   28 1    
    55   27   29 1    
    56   27   95 1    
    57   28   96 1    
    58   28   97 1    
    59   28   98 1    
    60   29   30 am   BACKBONE|DICT|INTERRES
    61   29   99 1    
    62   30   31 2    
    63   30   32 1    
    64   32   33 1    
    65   32   34 1    
    66   32  100 1    
    67   33  101 1    
    68   33  102 1    
    69   33  103 1    
    70   34   35 am   BACKBONE|DICT|INTERRES
    71   34  104 1    
    72   35   36 2    
    73   37   38 2    
    74   37   39 am   BACKBONE|DICT|INTERRES
    75   39   40 1    
    76   39  105 1    
    77   40   41 1    
    78   40   42 1    
    79   40  106 1    
    80   41  107 1    
    81   41  108 1    
    82   41  109 1    
    83   42   43 2    
    84   42   44 am   BACKBONE|DICT|INTERRES
    85   44   45 1    
    86   44  110 1    
    87   45   46 1    
    88   45   47 1    
    89   45  111 1    
    90   46  112 1    
    91   46  113 1    
    92   46  114 1    
    93   47   48 2    
    94   47   49 am   BACKBONE|DICT|INTERRES
    95   49   50 1    
    96   49  115 1    
    97   50   51 1    
    98   50   52 1    
    99   50  116 1    
   100   51  117 1    
   101   51  118 1    
   102   51  119 1    
   103   52   53 2    
   104   52   54 am   BACKBONE|DICT|INTERRES
   105   54   55 1    
   106   54  120 1    
   107   55   56 1    
   108   55   57 1    
   109   55  121 1    
   110   56  122 1    
   111   56  123 1    
   112   56  124 1    
   113   57   58 2    
   114   57   59 am   BACKBONE|DICT|INTERRES
   115   59   60 1    
   116   59  125 1    
   117   60   61 1    
   118   60   62 1    
   119   60  126 1    
   120   61  127 1    
   121   61  128 1    
   122   61  129 1    
   123   62   63 2    
   124   62   64 am   BACKBONE|DICT|INTERRES
   125   64   65 1    
   126   64  130 1    
   127   65   66 1    
   128   65   69 1    
   129   65  131 1    
   130   66   67 am   BACKBONE|DICT|INTERRES
   131   66   68 2    
   132   67  132 1    
   133   67  133 1    
   134   69   70 1    
   135   69  134 1    
   136   69  135 1    
   137   70   71 1    
   138   71  136 1    
   139   71  137 1    
@<TRIPOS>SUBSTRUCTURE
     1 UNK         1 GROUP             0       ****    0 ROOT    
