@<TRIPOS>MOLECULE
3R136
137   139    1
SMALL
USER_CHARGES


@<TRIPOS>ATOM
      1 CA         25.2590   19.0723    3.5178 C.3       0 UNK        -0.1979 
      2 C          26.4464   19.9380    3.1227 C.2       0 UNK         0.4864 
      3 O          27.5595   19.6901    3.5874 O.2       0 UNK        -0.5359 
      4 N          26.2109   20.9470    2.2704 N.am      1 UNK        -0.4318 
      5 CA         27.1987   21.9102    1.7646 C.3       1 UNK         0.0824 
      6 C6         28.2602   21.2522    0.8387 C.3       12 UNK        -0.0944 
      7 S7         28.9774   22.4437   -0.3468 S.3       12 UNK        -0.2672 
      8 C8         30.7524   22.3378    0.0398 C.3       12 UNK         0.0333 
      9 C9         31.4395   23.6893   -0.0895 C.ar      12 UNK        -0.0807 
     10 C10        31.7140   24.4396    1.0561 C.ar      12 UNK        -0.0894 
     11 C11        32.4061   25.6492    0.9645 C.ar      12 UNK        -0.0804 
     12 C12        32.7910   26.1300   -0.2911 C.ar      12 UNK        -0.0824 
     13 C13        32.5113   25.3984   -1.4506 C.ar      12 UNK        -0.0762 
     14 C14        31.8441   24.1704   -1.3388 C.ar      12 UNK        -0.0782 
     15 C15        33.0000   25.9081   -2.8047 C.3       12 UNK         0.0230 
     16 S16        31.7328   25.7784   -4.1083 S.3       12 UNK        -0.2608 
     17 C17        31.5145   27.5148   -4.6479 C.3       12 UNK        -0.0989 
     18 CA         30.5106   28.3715   -3.8172 C.3       5 UNK         0.0716 
     19 N          29.5247   27.5550   -3.1014 N.am      5 UNK        -0.4135 
     20 C          28.3782   27.9694   -2.5490 C.2       4 UNK         0.5031 
     21 O          27.9588   29.1250   -2.6165 O.2       4 UNK        -0.5229 
     22 CA         27.5826   26.9227   -1.7601 C.3       4 UNK         0.0329 
     23 CB         28.0032   25.4649   -2.0737 C.3       4 UNK        -0.2001 
     24 N          27.7293   27.2248   -0.3358 N.am      4 UNK        -0.4303 
     25 C          27.0418   26.6457    0.6513 C.2       3 UNK         0.5044 
     26 O          26.1710   25.7859    0.4790 O.2       3 UNK        -0.5152 
     27 CA         27.3626   27.1032    2.0788 C.3       3 UNK         0.0319 
     28 CB         26.5203   28.3273    2.4727 C.3       3 UNK        -0.2001 
     29 N          27.0548   25.9770    2.9481 N.am      3 UNK        -0.4354 
     30 C          27.5602   25.7167    4.1578 C.2       2 UNK         0.4964 
     31 O          28.2666   26.4959    4.7948 O.2       2 UNK        -0.5047 
     32 CA         27.2202   24.3381    4.7585 C.3       2 UNK         0.0288 
     33 CB         26.0492   24.4538    5.7483 C.3       2 UNK        -0.2113 
     34 N          26.8910   23.3390    3.7336 N.am      2 UNK        -0.4145 
     35 C          27.7853   22.7890    2.8963 C.2       1 UNK         0.5006 
     36 O          29.0013   22.9635    2.9974 O.2       1 UNK        -0.5103 
     37 C          31.2236   29.4062   -2.9171 C.2       5 UNK         0.5055 
     38 O          31.7998   30.3582   -3.4463 O.2       5 UNK        -0.5220 
     39 N          31.1443   29.2365   -1.5929 N.am      6 UNK        -0.4450 
     40 CA         31.4407   30.2562   -0.5940 C.3       6 UNK         0.0367 
     41 CB         32.7650   29.9238    0.1106 C.3       6 UNK        -0.1929 
     42 C          30.2649   30.2926    0.3933 C.2       6 UNK         0.5070 
     43 O          29.5021   29.3239    0.4770 O.2       6 UNK        -0.5237 
     44 N          30.1297   31.4171    1.1039 N.am      7 UNK        -0.4739 
     45 CA         29.1039   31.6371    2.1252 C.3       7 UNK         0.0276 
     46 CB         28.9508   33.1511    2.3482 C.3       7 UNK        -0.1927 
     47 C          29.4672   30.9440    3.4470 C.2       7 UNK         0.5013 
     48 O          30.6478   30.7002    3.7046 O.2       7 UNK        -0.5193 
     49 N          28.4593   30.7182    4.3024 N.am      8 UNK        -0.4253 
     50 CA         28.5925   30.0711    5.6163 C.3       8 UNK         0.0242 
     51 CB         27.2163   29.9939    6.2977 C.3       8 UNK        -0.2000 
     52 C          29.6131   30.7396    6.5559 C.2       8 UNK         0.4948 
     53 O          30.2857   30.0415    7.3140 O.2       8 UNK        -0.5275 
     54 N          29.7429   32.0703    6.4567 N.am      9 UNK        -0.4246 
     55 CA         30.7371   32.8708    7.1756 C.3       9 UNK         0.0261 
     56 CB         30.4034   34.3616    7.0022 C.3       9 UNK        -0.1959 
     57 C          32.1907   32.5923    6.7447 C.2       9 UNK         0.5033 
     58 O          33.0987   32.8064    7.5493 O.2       9 UNK        -0.5390 
     59 N          32.3903   32.1303    5.5023 N.am      10 UNK        -0.4215 
     60 CA         33.6878   31.7164    4.9700 C.3       10 UNK         0.0240 
     61 CB         33.7722   32.0751    3.4777 C.3       10 UNK        -0.1982 
     62 C          33.9168   30.2136    5.1883 C.2       10 UNK         0.4970 
     63 O          35.0311   29.8275    5.5437 O.2       10 UNK        -0.4916 
     64 N          32.8719   29.3983    4.9828 N.am      11 UNK        -0.4279 
     65 CA         32.8931   27.9470    5.2220 C.3       11 UNK         0.1003 
     66 C          33.0996   27.5546    6.7117 C.2       11 UNK         0.5709 
     67 N          32.5264   28.2762    7.6669 N.am      11 UNK        -0.7358 
     68 O          33.7958   26.5848    7.0025 O.2       11 UNK        -0.4999 
     69 C69        31.6416   27.2340    4.6492 C.3       12 UNK        -0.0954 
     70 S70        31.4309   27.4293    2.8497 S.3       12 UNK        -0.2268 
     71 C71        32.7891   26.3917    2.2345 C.3       12 UNK         0.0203 
     72 H72        25.4419   18.0351    3.2383 H         1 UNK         0.0888 
     73 H73        25.1076   19.1131    4.5962 H         1 UNK         0.0888 
     74 H74        24.3375   19.3957    3.0339 H         1 UNK         0.0888 
     75 H75        25.2689   21.0810    1.9284 H         1 UNK         0.3017 
     76 H76        26.6177   22.5966    1.1455 H         1 UNK         0.0873 
     77 H77        29.0338   20.7499    1.4214 H         1 UNK         0.0745 
     78 H78        27.7917   20.4683    0.2417 H         1 UNK         0.0745 
     79 H79        30.8964   21.9553    1.0512 H         1 UNK         0.0705 
     80 H80        31.2211   21.6137   -0.6281 H         1 UNK         0.0705 
     81 H81        31.4120   24.0682    2.0266 H         1 UNK         0.1334 
     82 H82        33.3387   27.0589   -0.3627 H         1 UNK         0.1417 
     83 H83        31.6458   23.5814   -2.2240 H         1 UNK         0.1562 
     84 H84        33.8690   25.3209   -3.1042 H         1 UNK         0.0748 
     85 H85        33.3422   26.9410   -2.7249 H         1 UNK         0.0748 
     86 H86        31.1442   27.4605   -5.6729 H         1 UNK         0.0940 
     87 H87        32.4927   27.9920   -4.7413 H         1 UNK         0.0940 
     88 H88        29.9418   28.9734   -4.5296 H         1 UNK         0.0703 
     89 H89        29.7829   26.5828   -2.9991 H         1 UNK         0.3081 
     90 H90        26.5330   27.0474   -2.0336 H         1 UNK         0.0719 
     91 H91        28.0017   25.2694   -3.1470 H         1 UNK         0.0809 
     92 H92        27.3113   24.7477   -1.6330 H         1 UNK         0.0809 
     93 H93        28.9974   25.2339   -1.6888 H         1 UNK         0.0809 
     94 H94        28.3802   27.9749   -0.0990 H         1 UNK         0.2990 
     95 H95        28.4266   27.3384    2.1540 H         1 UNK         0.0690 
     96 H96        26.7193   28.6245    3.5003 H         1 UNK         0.0788 
     97 H97        25.4519   28.1271    2.3830 H         1 UNK         0.0788 
     98 H98        26.7515   29.1789    1.8325 H         1 UNK         0.0788 
     99 H99        26.4851   25.2761    2.4909 H         1 UNK         0.2993 
    100 H100       28.1013   23.9940    5.3048 H         1 UNK         0.0949 
    101 H101       25.1353   24.7900    5.2568 H         1 UNK         0.0767 
    102 H102       25.8414   23.4985    6.2308 H         1 UNK         0.0767 
    103 H103       26.2774   25.1715    6.5378 H         1 UNK         0.0767 
    104 H104       25.9137   23.1152    3.6130 H         1 UNK         0.3013 
    105 H105       30.6028   28.4611   -1.2352 H         1 UNK         0.3121 
    106 H106       31.5195   31.2370   -1.0683 H         1 UNK         0.0774 
    107 H107       33.0786   30.7454    0.7527 H         1 UNK         0.0815 
    108 H108       32.6775   29.0377    0.7369 H         1 UNK         0.0815 
    109 H109       33.5670   29.7533   -0.6076 H         1 UNK         0.0815 
    110 H110       30.8220   32.1444    1.0003 H         1 UNK         0.2987 
    111 H111       28.1558   31.2320    1.7650 H         1 UNK         0.0949 
    112 H112       29.8705   33.5996    2.7270 H         1 UNK         0.0806 
    113 H113       28.6860   33.6627    1.4225 H         1 UNK         0.0806 
    114 H114       28.1616   33.3676    3.0693 H         1 UNK         0.0806 
    115 H115       27.5244   30.9836    4.0285 H         1 UNK         0.3010 
    116 H116       28.9389   29.0524    5.4368 H         1 UNK         0.0829 
    117 H117       26.5103   29.4062    5.7119 H         1 UNK         0.0813 
    118 H118       27.2933   29.5141    7.2746 H         1 UNK         0.0813 
    119 H119       26.7848   30.9833    6.4539 H         1 UNK         0.0813 
    120 H120       29.1409   32.5611    5.8120 H         1 UNK         0.3038 
    121 H121       30.6597   32.6235    8.2366 H         1 UNK         0.0769 
    122 H122       30.4447   34.6664    5.9556 H         1 UNK         0.0811 
    123 H123       31.1105   34.9856    7.5509 H         1 UNK         0.0811 
    124 H124       29.4083   34.5934    7.3823 H         1 UNK         0.0811 
    125 H125       31.5856   31.9110    4.9236 H         1 UNK         0.3204 
    126 H126       34.4864   32.2541    5.4858 H         1 UNK         0.0748 
    127 H127       33.6870   33.1511    3.3251 H         1 UNK         0.0771 
    128 H128       34.7263   31.7605    3.0525 H         1 UNK         0.0771 
    129 H129       32.9825   31.5936    2.9026 H         1 UNK         0.0771 
    130 H130       32.0037   29.7827    4.6198 H         1 UNK         0.2980 
    131 H131       33.7614   27.5592    4.6864 H         1 UNK         0.0545 
    132 H132       31.8715   29.0200    7.4400 H         1 UNK         0.3459 
    133 H133       32.6713   28.0182    8.6293 H         1 UNK         0.3459 
    134 H134       31.6656   26.1648    4.8687 H         1 UNK         0.0616 
    135 H135       30.7429   27.6163    5.1334 H         1 UNK         0.0616 
    136 H136       33.0800   25.6656    2.9950 H         1 UNK         0.0634 
    137 H137       33.6649   27.0197    2.0649 H         1 UNK         0.0634 
@<TRIPOS>BOND
     1    1    2 1    
     2    1   72 1    
     3    1   73 1    
     4    1   74 1    
     5    2    3 2    
     6    2    4 am   BACKBONE|DICT|INTERRES
     7    4    5 1    
     8    4   75 1    
     9    5    6 1    
    10    5   35 1    
    11    5   76 1    
    12    6    7 1    
    13    6   77 1    
    14    6   78 1    
    15    7    8 1    
    16    8    9 1    
    17    8   79 1    
    18    8   80 1    
    19    9   10 ar   
    20    9   14 ar   
    21   10   11 ar   
    22   10   81 1    
    23   11   12 ar   
    24   11   71 1    
    25   12   13 ar   
    26   12   82 1    
    27   13   14 ar   
    28   13   15 1    
    29   14   83 1    
    30   15   16 1    
    31   15   84 1    
    32   15   85 1    
    33   16   17 1    
    34   17   18 1    
    35   17   86 1    
    36   17   87 1    
    37   18   19 1    
    38   18   37 1    
    39   18   88 1    
    40   19   20 am   BACKBONE|DICT|INTERRES
    41   19   89 1    
    42   20   21 2    
    43   20   22 1    
    44   22   23 1    
    45   22   24 1    
    46   22   90 1    
    47   23   91 1    
    48   23   92 1    
    49   23   93 1    
    50   24   25 am   BACKBONE|DICT|INTERRES
    51   24   94 1    
    52   25   26 2    
    53   25   27 1    
    54   27   28 1    
    55   27   29 1    
    56   27   95 1    
    57   28   96 1    
    58   28   97 1    
    59   28   98 1    
    60   29   30 am   BACKBONE|DICT|INTERRES
    61   29   99 1    
    62   30   31 2    
    63   30   32 1    
    64   32   33 1    
    65   32   34 1    
    66   32  100 1    
    67   33  101 1    
    68   33  102 1    
    69   33  103 1    
    70   34   35 am   BACKBONE|DICT|INTERRES
    71   34  104 1    
    72   35   36 2    
    73   37   38 2    
    74   37   39 am   BACKBONE|DICT|INTERRES
    75   39   40 1    
    76   39  105 1    
    77   40   41 1    
    78   40   42 1    
    79   40  106 1    
    80   41  107 1    
    81   41  108 1    
    82   41  109 1    
    83   42   43 2    
    84   42   44 am   BACKBONE|DICT|INTERRES
    85   44   45 1    
    86   44  110 1    
    87   45   46 1    
    88   45   47 1    
    89   45  111 1    
    90   46  112 1    
    91   46  113 1    
    92   46  114 1    
    93   47   48 2    
    94   47   49 am   BACKBONE|DICT|INTERRES
    95   49   50 1    
    96   49  115 1    
    97   50   51 1    
    98   50   52 1    
    99   50  116 1    
   100   51  117 1    
   101   51  118 1    
   102   51  119 1    
   103   52   53 2    
   104   52   54 am   BACKBONE|DICT|INTERRES
   105   54   55 1    
   106   54  120 1    
   107   55   56 1    
   108   55   57 1    
   109   55  121 1    
   110   56  122 1    
   111   56  123 1    
   112   56  124 1    
   113   57   58 2    
   114   57   59 am   BACKBONE|DICT|INTERRES
   115   59   60 1    
   116   59  125 1    
   117   60   61 1    
   118   60   62 1    
   119   60  126 1    
   120   61  127 1    
   121   61  128 1    
   122   61  129 1    
   123   62   63 2    
   124   62   64 am   BACKBONE|DICT|INTERRES
   125   64   65 1    
   126   64  130 1    
   127   65   66 1    
   128   65   69 1    
   129   65  131 1    
   130   66   67 am   BACKBONE|DICT|INTERRES
   131   66   68 2    
   132   67  132 1    
   133   67  133 1    
   134   69   70 1    
   135   69  134 1    
   136   69  135 1    
   137   70   71 1    
   138   71  136 1    
   139   71  137 1    
@<TRIPOS>SUBSTRUCTURE
     1 UNK         1 GROUP             0       ****    0 ROOT    
