@<TRIPOS>MOLECULE
3R136
137   139    1
SMALL
USER_CHARGES


@<TRIPOS>ATOM
      1 CA         26.4533   22.1959    2.0179 C.3       0 UNK        -0.1979 
      2 C          27.5827   21.9017    1.0448 C.2       0 UNK         0.4864 
      3 O          27.3209   21.5006   -0.0902 O.2       0 UNK        -0.5359 
      4 N          28.8360   22.0809    1.4847 N.am      1 UNK        -0.4318 
      5 CA         30.0425   21.8356    0.6808 C.3       1 UNK         0.0824 
      6 C6         31.3336   21.6887    1.5303 C.3       12 UNK        -0.0944 
      7 S7         31.0773   20.7628    3.0859 S.3       12 UNK        -0.2672 
      8 C8         31.5936   21.9680    4.3538 C.3       12 UNK         0.0333 
      9 C9         30.8631   23.3053    4.2673 C.ar      12 UNK        -0.0807 
     10 C10        31.5305   24.4289    3.7696 C.ar      12 UNK        -0.0894 
     11 C11        30.9096   25.6794    3.7577 C.ar      12 UNK        -0.0804 
     12 C12        29.6065   25.8034    4.2450 C.ar      12 UNK        -0.0824 
     13 C13        28.9164   24.6877    4.7298 C.ar      12 UNK        -0.0762 
     14 C14        29.5510   23.4385    4.7363 C.ar      12 UNK        -0.0782 
     15 C15        27.5139   24.8429    5.3081 C.3       12 UNK         0.0230 
     16 S16        26.2410   25.1122    4.0297 S.3       12 UNK        -0.2608 
     17 C17        26.2942   26.9201    3.7758 C.3       12 UNK        -0.0989 
     18 CA         26.6983   27.3012    2.3228 C.3       5 UNK         0.0716 
     19 N          25.7500   26.8203    1.3100 N.am      5 UNK        -0.4135 
     20 C          24.4855   27.2361    1.1291 C.2       4 UNK         0.5031 
     21 O          23.9144   28.0264    1.8827 O.2       4 UNK        -0.5229 
     22 CA         23.7360   26.7084   -0.1168 C.3       4 UNK         0.0329 
     23 CB         22.7235   27.7375   -0.6636 C.3       4 UNK        -0.2001 
     24 N          24.6119   26.2377   -1.2008 N.am      4 UNK        -0.4303 
     25 C          25.5752   26.9323   -1.8248 C.2       3 UNK         0.5044 
     26 O          25.8625   28.1036   -1.5736 O.2       3 UNK        -0.5152 
     27 CA         26.4253   26.1492   -2.8394 C.3       3 UNK         0.0319 
     28 CB         26.4484   26.8636   -4.2010 C.3       3 UNK        -0.2001 
     29 N          27.8035   25.9480   -2.3750 N.am      3 UNK        -0.4354 
     30 C          28.1656   25.4217   -1.1962 C.2       2 UNK         0.4964 
     31 O          27.3703   25.0758   -0.3170 O.2       2 UNK        -0.5047 
     32 CA         29.6714   25.2905   -0.9346 C.3       2 UNK         0.0288 
     33 CB         30.2124   26.5692   -0.2751 C.3       2 UNK        -0.2113 
     34 N          29.8776   24.1669   -0.0268 N.am      2 UNK        -0.4145 
     35 C          30.2200   22.9254   -0.3954 C.2       1 UNK         0.5006 
     36 O          30.6256   22.6215   -1.5188 O.2       1 UNK        -0.5103 
     37 C          27.0198   28.8095    2.1665 C.2       5 UNK         0.5055 
     38 O          27.3790   29.4550    3.1512 O.2       5 UNK        -0.5220 
     39 N          26.9156   29.3599    0.9436 N.am      6 UNK        -0.4450 
     40 CA         27.1063   30.7895    0.6562 C.3       6 UNK         0.0367 
     41 CB         26.7073   31.0775   -0.7997 C.3       6 UNK        -0.1929 
     42 C          28.5244   31.3228    0.9349 C.2       6 UNK         0.5070 
     43 O          28.6826   32.5236    1.1534 O.2       6 UNK        -0.5237 
     44 N          29.5235   30.4310    0.9412 N.am      7 UNK        -0.4739 
     45 CA         30.9244   30.7400    1.2390 C.3       7 UNK         0.0276 
     46 CB         31.8287   29.7756    0.4497 C.3       7 UNK        -0.1927 
     47 C          31.2584   30.7077    2.7443 C.2       7 UNK         0.5013 
     48 O          32.4438   30.6939    3.0731 O.2       7 UNK        -0.5193 
     49 N          30.2452   30.6662    3.6278 N.am      8 UNK        -0.4253 
     50 CA         30.3665   30.5968    5.0919 C.3       8 UNK         0.0242 
     51 CB         28.9932   30.8402    5.7393 C.3       8 UNK        -0.2000 
     52 C          31.4075   31.5666    5.6825 C.2       8 UNK         0.4948 
     53 O          31.3732   32.7597    5.3750 O.2       8 UNK        -0.5275 
     54 N          32.3138   31.0120    6.4998 N.am      9 UNK        -0.4246 
     55 CA         33.4853   31.6455    7.1233 C.3       9 UNK         0.0261 
     56 CB         33.0976   32.8830    7.9618 C.3       9 UNK        -0.1959 
     57 C          34.6557   31.9364    6.1586 C.2       9 UNK         0.5033 
     58 O          35.6746   32.4626    6.6112 O.2       9 UNK        -0.5390 
     59 N          34.5358   31.5575    4.8795 N.am      10 UNK        -0.4215 
     60 CA         35.5898   31.6306    3.8642 C.3       10 UNK         0.0240 
     61 CB         35.3420   32.8550    2.9612 C.3       10 UNK        -0.1982 
     62 C          35.6554   30.3104    3.0715 C.2       10 UNK         0.4970 
     63 O          35.9793   30.3222    1.8815 O.2       10 UNK        -0.4916 
     64 N          35.3257   29.1970    3.7418 N.am      11 UNK        -0.4279 
     65 CA         35.1904   27.8537    3.1548 C.3       11 UNK         0.1003 
     66 C          36.5288   27.1756    2.7365 C.2       11 UNK         0.5709 
     67 N          37.6895   27.6878    3.1295 N.am      11 UNK        -0.7358 
     68 O          36.5117   26.1660    2.0361 O.2       11 UNK        -0.4999 
     69 C69        34.3570   26.9134    4.0694 C.3       12 UNK        -0.0954 
     70 S70        32.7315   27.6138    4.5190 S.3       12 UNK        -0.2268 
     71 C71        31.6488   26.9031    3.2410 C.3       12 UNK         0.0203 
     72 H72        25.7370   21.3750    2.0267 H         1 UNK         0.0888 
     73 H73        25.9307   23.1034    1.7155 H         1 UNK         0.0888 
     74 H74        26.8212   22.3322    3.0344 H         1 UNK         0.0888 
     75 H75        29.0011   22.3752    2.4371 H         1 UNK         0.3017 
     76 H76        29.8905   20.8888    0.1575 H         1 UNK         0.0873 
     77 H77        32.0934   21.1626    0.9496 H         1 UNK         0.0745 
     78 H78        31.7718   22.6608    1.7538 H         1 UNK         0.0745 
     79 H79        31.4254   21.5307    5.3390 H         1 UNK         0.0705 
     80 H80        32.6717   22.1171    4.2740 H         1 UNK         0.0705 
     81 H81        32.5458   24.3344    3.4113 H         1 UNK         0.1334 
     82 H82        29.1396   26.7772    4.2617 H         1 UNK         0.1417 
     83 H83        29.0384   22.5736    5.1360 H         1 UNK         0.1562 
     84 H84        27.4981   25.6581    6.0328 H         1 UNK         0.0748 
     85 H85        27.2417   23.9470    5.8681 H         1 UNK         0.0748 
     86 H86        26.9755   27.3581    4.5054 H         1 UNK         0.0940 
     87 H87        25.3139   27.3308    4.0213 H         1 UNK         0.0940 
     88 H88        27.6376   26.7920    2.1039 H         1 UNK         0.0703 
     89 H89        26.1382   26.1516    0.6486 H         1 UNK         0.3081 
     90 H90        23.1741   25.8365    0.2210 H         1 UNK         0.0719 
     91 H91        23.2137   28.6649   -0.9625 H         1 UNK         0.0809 
     92 H92        22.1882   27.3470   -1.5290 H         1 UNK         0.0809 
     93 H93        21.9753   27.9928    0.0879 H         1 UNK         0.0809 
     94 H94        24.5031   25.2633   -1.4476 H         1 UNK         0.2990 
     95 H95        25.9817   25.1619   -2.9833 H         1 UNK         0.0690 
     96 H96        26.9798   26.2766   -4.9503 H         1 UNK         0.0788 
     97 H97        26.9289   27.8411   -4.1361 H         1 UNK         0.0788 
     98 H98        25.4360   27.0235   -4.5746 H         1 UNK         0.0788 
     99 H99        28.5296   26.2384   -3.0138 H         1 UNK         0.2993 
    100 H100       30.1925   25.1210   -1.8796 H         1 UNK         0.0949 
    101 H101       30.0678   27.4356   -0.9220 H         1 UNK         0.0767 
    102 H102       29.7163   26.7788    0.6731 H         1 UNK         0.0767 
    103 H103       31.2817   26.4838   -0.0815 H         1 UNK         0.0767 
    104 H104       29.4853   24.2812    0.8967 H         1 UNK         0.3013 
    105 H105       26.5966   28.7883    0.1657 H         1 UNK         0.3121 
    106 H106       26.4264   31.3433    1.3071 H         1 UNK         0.0774 
    107 H107       27.3254   30.5193   -1.5042 H         1 UNK         0.0815 
    108 H108       26.8173   32.1369   -1.0357 H         1 UNK         0.0815 
    109 H109       25.6661   30.8129   -0.9850 H         1 UNK         0.0815 
    110 H110       29.2962   29.4647    0.7610 H         1 UNK         0.2987 
    111 H111       31.1437   31.7533    0.8950 H         1 UNK         0.0949 
    112 H112       31.7389   28.7524    0.8115 H         1 UNK         0.0806 
    113 H113       31.5907   29.7828   -0.6141 H         1 UNK         0.0806 
    114 H114       32.8786   30.0577    0.5448 H         1 UNK         0.0806 
    115 H115       29.3014   30.6435    3.2627 H         1 UNK         0.3010 
    116 H116       30.6683   29.5760    5.3299 H         1 UNK         0.0829 
    117 H117       28.2899   30.0454    5.4940 H         1 UNK         0.0813 
    118 H118       29.0698   30.8691    6.8272 H         1 UNK         0.0813 
    119 H119       28.5594   31.7877    5.4173 H         1 UNK         0.0813 
    120 H120       32.2376   30.0177    6.6681 H         1 UNK         0.3038 
    121 H121       33.8703   30.9002    7.8209 H         1 UNK         0.0769 
    122 H122       32.7961   33.7230    7.3359 H         1 UNK         0.0811 
    123 H123       33.9394   33.2223    8.5665 H         1 UNK         0.0811 
    124 H124       32.2786   32.6605    8.6459 H         1 UNK         0.0811 
    125 H125       33.6563   31.1668    4.5449 H         1 UNK         0.3204 
    126 H126       36.5646   31.7464    4.3426 H         1 UNK         0.0748 
    127 H127       36.1372   32.9698    2.2236 H         1 UNK         0.0771 
    128 H128       34.3995   32.7653    2.4187 H         1 UNK         0.0771 
    129 H129       35.3068   33.7758    3.5445 H         1 UNK         0.0771 
    130 H130       35.0794   29.2747    4.7173 H         1 UNK         0.2980 
    131 H131       34.6266   27.9782    2.2274 H         1 UNK         0.0545 
    132 H132       37.7141   28.5178    3.6995 H         1 UNK         0.3459 
    133 H133       38.5483   27.2408    2.8476 H         1 UNK         0.3459 
    134 H134       34.2083   25.9440    3.5923 H         1 UNK         0.0616 
    135 H135       34.8987   26.7122    4.9957 H         1 UNK         0.0616 
    136 H136       32.2251   26.6527    2.3492 H         1 UNK         0.0634 
    137 H137       30.9321   27.6657    2.9341 H         1 UNK         0.0634 
@<TRIPOS>BOND
     1    1    2 1    
     2    1   72 1    
     3    1   73 1    
     4    1   74 1    
     5    2    3 2    
     6    2    4 am   BACKBONE|DICT|INTERRES
     7    4    5 1    
     8    4   75 1    
     9    5    6 1    
    10    5   35 1    
    11    5   76 1    
    12    6    7 1    
    13    6   77 1    
    14    6   78 1    
    15    7    8 1    
    16    8    9 1    
    17    8   79 1    
    18    8   80 1    
    19    9   10 ar   
    20    9   14 ar   
    21   10   11 ar   
    22   10   81 1    
    23   11   12 ar   
    24   11   71 1    
    25   12   13 ar   
    26   12   82 1    
    27   13   14 ar   
    28   13   15 1    
    29   14   83 1    
    30   15   16 1    
    31   15   84 1    
    32   15   85 1    
    33   16   17 1    
    34   17   18 1    
    35   17   86 1    
    36   17   87 1    
    37   18   19 1    
    38   18   37 1    
    39   18   88 1    
    40   19   20 am   BACKBONE|DICT|INTERRES
    41   19   89 1    
    42   20   21 2    
    43   20   22 1    
    44   22   23 1    
    45   22   24 1    
    46   22   90 1    
    47   23   91 1    
    48   23   92 1    
    49   23   93 1    
    50   24   25 am   BACKBONE|DICT|INTERRES
    51   24   94 1    
    52   25   26 2    
    53   25   27 1    
    54   27   28 1    
    55   27   29 1    
    56   27   95 1    
    57   28   96 1    
    58   28   97 1    
    59   28   98 1    
    60   29   30 am   BACKBONE|DICT|INTERRES
    61   29   99 1    
    62   30   31 2    
    63   30   32 1    
    64   32   33 1    
    65   32   34 1    
    66   32  100 1    
    67   33  101 1    
    68   33  102 1    
    69   33  103 1    
    70   34   35 am   BACKBONE|DICT|INTERRES
    71   34  104 1    
    72   35   36 2    
    73   37   38 2    
    74   37   39 am   BACKBONE|DICT|INTERRES
    75   39   40 1    
    76   39  105 1    
    77   40   41 1    
    78   40   42 1    
    79   40  106 1    
    80   41  107 1    
    81   41  108 1    
    82   41  109 1    
    83   42   43 2    
    84   42   44 am   BACKBONE|DICT|INTERRES
    85   44   45 1    
    86   44  110 1    
    87   45   46 1    
    88   45   47 1    
    89   45  111 1    
    90   46  112 1    
    91   46  113 1    
    92   46  114 1    
    93   47   48 2    
    94   47   49 am   BACKBONE|DICT|INTERRES
    95   49   50 1    
    96   49  115 1    
    97   50   51 1    
    98   50   52 1    
    99   50  116 1    
   100   51  117 1    
   101   51  118 1    
   102   51  119 1    
   103   52   53 2    
   104   52   54 am   BACKBONE|DICT|INTERRES
   105   54   55 1    
   106   54  120 1    
   107   55   56 1    
   108   55   57 1    
   109   55  121 1    
   110   56  122 1    
   111   56  123 1    
   112   56  124 1    
   113   57   58 2    
   114   57   59 am   BACKBONE|DICT|INTERRES
   115   59   60 1    
   116   59  125 1    
   117   60   61 1    
   118   60   62 1    
   119   60  126 1    
   120   61  127 1    
   121   61  128 1    
   122   61  129 1    
   123   62   63 2    
   124   62   64 am   BACKBONE|DICT|INTERRES
   125   64   65 1    
   126   64  130 1    
   127   65   66 1    
   128   65   69 1    
   129   65  131 1    
   130   66   67 am   BACKBONE|DICT|INTERRES
   131   66   68 2    
   132   67  132 1    
   133   67  133 1    
   134   69   70 1    
   135   69  134 1    
   136   69  135 1    
   137   70   71 1    
   138   71  136 1    
   139   71  137 1    
@<TRIPOS>SUBSTRUCTURE
     1 UNK         1 GROUP             0       ****    0 ROOT    
