@<TRIPOS>MOLECULE
3R136
137   139    1
SMALL
USER_CHARGES


@<TRIPOS>ATOM
      1 CA         34.0090   26.7676   -3.8420 C.3       0 UNK        -0.1979 
      2 C          32.8833   26.6821   -2.8224 C.2       0 UNK         0.4864 
      3 O          32.6000   27.6724   -2.1437 O.2       0 UNK        -0.5359 
      4 N          32.2477   25.5066   -2.7025 N.am      1 UNK        -0.4318 
      5 CA         31.1061   25.2753   -1.8127 C.3       1 UNK         0.0824 
      6 C6         30.8704   23.7699   -1.5237 C.3       12 UNK        -0.0944 
      7 S7         30.1621   23.5193    0.1429 S.3       12 UNK        -0.2672 
      8 C8         31.5905   22.8476    1.0602 C.3       12 UNK         0.0333 
      9 C9         31.4201   22.9828    2.5706 C.ar      12 UNK        -0.0807 
     10 C10        32.3699   23.6778    3.3304 C.ar      12 UNK        -0.0894 
     11 C11        32.2151   23.8214    4.7139 C.ar      12 UNK        -0.0804 
     12 C12        31.1048   23.2462    5.3380 C.ar      12 UNK        -0.0824 
     13 C13        30.1576   22.5324    4.5965 C.ar      12 UNK        -0.0762 
     14 C14        30.3235   22.3998    3.2148 C.ar      12 UNK        -0.0782 
     15 C15        28.9629   21.8959    5.2972 C.3       12 UNK         0.0230 
     16 S16        27.3722   22.6602    4.8357 S.3       12 UNK        -0.2608 
     17 C17        27.6667   24.4266    5.1902 C.3       12 UNK        -0.0989 
     18 CA         27.4624   25.2893    3.9132 C.3       5 UNK         0.0716 
     19 N          26.0598   25.3379    3.4792 N.am      5 UNK        -0.4135 
     20 C          25.0318   25.8987    4.1388 C.2       4 UNK         0.5031 
     21 O          25.1385   26.4640    5.2287 O.2       4 UNK        -0.5229 
     22 CA         23.6397   25.7851    3.4807 C.3       4 UNK         0.0329 
     23 CB         22.6619   26.8873    3.9444 C.3       4 UNK        -0.2001 
     24 N          23.6938   25.7035    2.0156 N.am      4 UNK        -0.4303 
     25 C          24.1455   26.6414    1.1710 C.2       3 UNK         0.5044 
     26 O          24.5011   27.7739    1.5024 O.2       3 UNK        -0.5152 
     27 CA         24.2053   26.2209   -0.3064 C.3       3 UNK         0.0319 
     28 CB         22.9432   26.6944   -1.0456 C.3       3 UNK        -0.2001 
     29 N          25.3891   26.7088   -1.0207 N.am      3 UNK        -0.4354 
     30 C          26.6682   26.5809   -0.6399 C.2       2 UNK         0.4964 
     31 O          27.0449   26.1078    0.4388 O.2       2 UNK        -0.5047 
     32 CA         27.7055   27.0680   -1.6560 C.3       2 UNK         0.0288 
     33 CB         27.9048   28.5909   -1.5741 C.3       2 UNK        -0.2113 
     34 N          28.9711   26.3923   -1.3949 N.am      2 UNK        -0.4145 
     35 C          29.8376   25.9862   -2.3280 C.2       1 UNK         0.5006 
     36 O          29.6663   26.1398   -3.5410 O.2       1 UNK        -0.5103 
     37 C          28.0608   26.7065    4.0302 C.2       5 UNK         0.5055 
     38 O          28.6630   27.0411    5.0489 O.2       5 UNK        -0.5220 
     39 N          27.8813   27.5133    2.9765 N.am      6 UNK        -0.4450 
     40 CA         28.3323   28.9065    2.8951 C.3       6 UNK         0.0367 
     41 CB         27.1663   29.7683    2.3770 C.3       6 UNK        -0.1929 
     42 C          29.5898   29.0480    2.0174 C.2       6 UNK         0.5070 
     43 O          29.7694   30.0829    1.3716 O.2       6 UNK        -0.5237 
     44 N          30.4204   27.9955    1.9730 N.am      7 UNK        -0.4739 
     45 CA         31.5996   27.8625    1.1129 C.3       7 UNK         0.0276 
     46 CB         32.3224   26.5514    1.4353 C.3       7 UNK        -0.1927 
     47 C          32.5777   29.0362    1.2335 C.2       7 UNK         0.5013 
     48 O          32.9851   29.3749    2.3492 O.2       7 UNK        -0.5193 
     49 N          32.8835   29.6525    0.0823 N.am      8 UNK        -0.4253 
     50 CA         33.7127   30.8512   -0.1117 C.3       8 UNK         0.0242 
     51 CB         35.1951   30.4961    0.1296 C.3       8 UNK        -0.2000 
     52 C          33.2836   32.0884    0.7119 C.2       8 UNK         0.4948 
     53 O          34.0829   33.0153    0.8522 O.2       8 UNK        -0.5275 
     54 N          32.0662   32.0672    1.2835 N.am      9 UNK        -0.4246 
     55 CA         31.5722   32.9440    2.3544 C.3       9 UNK         0.0261 
     56 CB         31.3886   34.3908    1.8487 C.3       9 UNK        -0.1959 
     57 C          32.4145   32.8645    3.6507 C.2       9 UNK         0.5033 
     58 O          32.3744   33.7969    4.4561 O.2       9 UNK        -0.5390 
     59 N          33.1622   31.7661    3.8293 N.am      10 UNK        -0.4215 
     60 CA         34.0670   31.5200    4.9496 C.3       10 UNK         0.0240 
     61 CB         35.4178   31.0201    4.4094 C.3       10 UNK        -0.1982 
     62 C          33.4637   30.5020    5.9237 C.2       10 UNK         0.4970 
     63 O          33.5137   30.7325    7.1328 O.2       10 UNK        -0.4916 
     64 N          32.8997   29.4074    5.3937 N.am      11 UNK        -0.4279 
     65 CA         32.1587   28.4081    6.1795 C.3       11 UNK         0.1003 
     66 C          30.8021   28.9655    6.6961 C.2       11 UNK         0.5709 
     67 N          30.3079   28.4475    7.8129 N.am      11 UNK        -0.7358 
     68 O          30.1936   29.8510    6.0960 O.2       11 UNK        -0.4999 
     69 C69        31.9693   27.0823    5.3976 C.3       12 UNK        -0.0954 
     70 S70        33.5597   26.2690    5.0245 S.3       12 UNK        -0.2268 
     71 C71        33.2658   24.5483    5.5507 C.3       12 UNK         0.0203 
     72 H72        33.7773   27.5236   -4.5917 H         1 UNK         0.0888 
     73 H73        34.9392   27.0493   -3.3495 H         1 UNK         0.0888 
     74 H74        34.1691   25.8189   -4.3539 H         1 UNK         0.0888 
     75 H75        32.4974   24.7409   -3.3118 H         1 UNK         0.3017 
     76 H76        31.3738   25.7493   -0.8740 H         1 UNK         0.0873 
     77 H77        30.2144   23.3143   -2.2683 H         1 UNK         0.0745 
     78 H78        31.8091   23.2168   -1.5840 H         1 UNK         0.0745 
     79 H79        31.7217   21.7959    0.8024 H         1 UNK         0.0705 
     80 H80        32.4964   23.3629    0.7367 H         1 UNK         0.0705 
     81 H81        33.2345   24.1125    2.8479 H         1 UNK         0.1334 
     82 H82        30.9826   23.3447    6.4081 H         1 UNK         0.1417 
     83 H83        29.5899   21.8530    2.6377 H         1 UNK         0.1562 
     84 H84        29.0753   21.9514    6.3812 H         1 UNK         0.0748 
     85 H85        28.9278   20.8340    5.0502 H         1 UNK         0.0748 
     86 H86        28.6735   24.5505    5.5888 H         1 UNK         0.0940 
     87 H87        27.0008   24.7444    5.9934 H         1 UNK         0.0940 
     88 H88        28.0182   24.8155    3.1015 H         1 UNK         0.0703 
     89 H89        25.8743   24.9247    2.5767 H         1 UNK         0.3081 
     90 H90        23.2335   24.8303    3.8181 H         1 UNK         0.0719 
     91 H91        23.0413   27.8857    3.7248 H         1 UNK         0.0809 
     92 H92        21.6891   26.7839    3.4638 H         1 UNK         0.0809 
     93 H93        22.4963   26.8351    5.0212 H         1 UNK         0.0809 
     94 H94        23.4080   24.8155    1.6251 H         1 UNK         0.2990 
     95 H95        24.2417   25.1306   -0.3533 H         1 UNK         0.0690 
     96 H96        22.9216   26.3307   -2.0731 H         1 UNK         0.0788 
     97 H97        22.8786   27.7832   -1.0718 H         1 UNK         0.0788 
     98 H98        22.0400   26.3272   -0.5558 H         1 UNK         0.0788 
     99 H99        25.2055   27.1524   -1.9089 H         1 UNK         0.2993 
    100 H100       27.3481   26.8034   -2.6540 H         1 UNK         0.0949 
    101 H101       26.9695   29.1230   -1.7523 H         1 UNK         0.0767 
    102 H102       28.2729   28.8960   -0.5959 H         1 UNK         0.0767 
    103 H103       28.6213   28.9358   -2.3199 H         1 UNK         0.0767 
    104 H104       29.1085   26.1220   -0.4289 H         1 UNK         0.3013 
    105 H105       27.4103   27.1408    2.1563 H         1 UNK         0.3121 
    106 H106       28.6011   29.2755    3.8869 H         1 UNK         0.0774 
    107 H107       26.8710   29.4823    1.3670 H         1 UNK         0.0815 
    108 H108       27.4338   30.8254    2.3557 H         1 UNK         0.0815 
    109 H109       26.2894   29.6703    3.0173 H         1 UNK         0.0815 
    110 H110       30.2039   27.2080    2.5651 H         1 UNK         0.2987 
    111 H111       31.2232   27.8228    0.0904 H         1 UNK         0.0949 
    112 H112       32.8236   26.6019    2.3976 H         1 UNK         0.0806 
    113 H113       31.6304   25.7133    1.4650 H         1 UNK         0.0806 
    114 H114       33.0875   26.3309    0.6897 H         1 UNK         0.0806 
    115 H115       32.5336   29.2314   -0.7741 H         1 UNK         0.3010 
    116 H116       33.6012   31.1326   -1.1598 H         1 UNK         0.0829 
    117 H117       35.3858   30.2561    1.1763 H         1 UNK         0.0813 
    118 H118       35.5002   29.6395   -0.4715 H         1 UNK         0.0813 
    119 H119       35.8500   31.3259   -0.1388 H         1 UNK         0.0813 
    120 H120       31.4679   31.2681    1.0935 H         1 UNK         0.3038 
    121 H121       30.5855   32.5606    2.6187 H         1 UNK         0.0769 
    122 H122       32.3442   34.8723    1.6402 H         1 UNK         0.0811 
    123 H123       30.8740   35.0020    2.5911 H         1 UNK         0.0811 
    124 H124       30.7912   34.4196    0.9376 H         1 UNK         0.0811 
    125 H125       33.0942   31.0166    3.1423 H         1 UNK         0.3204 
    126 H126       34.2458   32.4469    5.4987 H         1 UNK         0.0748 
    127 H127       36.1215   30.8406    5.2234 H         1 UNK         0.0771 
    128 H128       35.3144   30.0867    3.8541 H         1 UNK         0.0771 
    129 H129       35.8713   31.7544    3.7432 H         1 UNK         0.0771 
    130 H130       32.8962   29.2831    4.3875 H         1 UNK         0.2980 
    131 H131       32.7624   28.1826    7.0612 H         1 UNK         0.0545 
    132 H132       29.4219   28.7848    8.1539 H         1 UNK         0.3459 
    133 H133       30.7916   27.7166    8.3098 H         1 UNK         0.3459 
    134 H134       31.3471   26.3895    5.9670 H         1 UNK         0.0616 
    135 H135       31.4426   27.2619    4.4606 H         1 UNK         0.0616 
    136 H136       34.2059   24.0004    5.4778 H         1 UNK         0.0634 
    137 H137       32.9945   24.5484    6.6075 H         1 UNK         0.0634 
@<TRIPOS>BOND
     1    1    2 1    
     2    1   72 1    
     3    1   73 1    
     4    1   74 1    
     5    2    3 2    
     6    2    4 am   BACKBONE|DICT|INTERRES
     7    4    5 1    
     8    4   75 1    
     9    5    6 1    
    10    5   35 1    
    11    5   76 1    
    12    6    7 1    
    13    6   77 1    
    14    6   78 1    
    15    7    8 1    
    16    8    9 1    
    17    8   79 1    
    18    8   80 1    
    19    9   10 ar   
    20    9   14 ar   
    21   10   11 ar   
    22   10   81 1    
    23   11   12 ar   
    24   11   71 1    
    25   12   13 ar   
    26   12   82 1    
    27   13   14 ar   
    28   13   15 1    
    29   14   83 1    
    30   15   16 1    
    31   15   84 1    
    32   15   85 1    
    33   16   17 1    
    34   17   18 1    
    35   17   86 1    
    36   17   87 1    
    37   18   19 1    
    38   18   37 1    
    39   18   88 1    
    40   19   20 am   BACKBONE|DICT|INTERRES
    41   19   89 1    
    42   20   21 2    
    43   20   22 1    
    44   22   23 1    
    45   22   24 1    
    46   22   90 1    
    47   23   91 1    
    48   23   92 1    
    49   23   93 1    
    50   24   25 am   BACKBONE|DICT|INTERRES
    51   24   94 1    
    52   25   26 2    
    53   25   27 1    
    54   27   28 1    
    55   27   29 1    
    56   27   95 1    
    57   28   96 1    
    58   28   97 1    
    59   28   98 1    
    60   29   30 am   BACKBONE|DICT|INTERRES
    61   29   99 1    
    62   30   31 2    
    63   30   32 1    
    64   32   33 1    
    65   32   34 1    
    66   32  100 1    
    67   33  101 1    
    68   33  102 1    
    69   33  103 1    
    70   34   35 am   BACKBONE|DICT|INTERRES
    71   34  104 1    
    72   35   36 2    
    73   37   38 2    
    74   37   39 am   BACKBONE|DICT|INTERRES
    75   39   40 1    
    76   39  105 1    
    77   40   41 1    
    78   40   42 1    
    79   40  106 1    
    80   41  107 1    
    81   41  108 1    
    82   41  109 1    
    83   42   43 2    
    84   42   44 am   BACKBONE|DICT|INTERRES
    85   44   45 1    
    86   44  110 1    
    87   45   46 1    
    88   45   47 1    
    89   45  111 1    
    90   46  112 1    
    91   46  113 1    
    92   46  114 1    
    93   47   48 2    
    94   47   49 am   BACKBONE|DICT|INTERRES
    95   49   50 1    
    96   49  115 1    
    97   50   51 1    
    98   50   52 1    
    99   50  116 1    
   100   51  117 1    
   101   51  118 1    
   102   51  119 1    
   103   52   53 2    
   104   52   54 am   BACKBONE|DICT|INTERRES
   105   54   55 1    
   106   54  120 1    
   107   55   56 1    
   108   55   57 1    
   109   55  121 1    
   110   56  122 1    
   111   56  123 1    
   112   56  124 1    
   113   57   58 2    
   114   57   59 am   BACKBONE|DICT|INTERRES
   115   59   60 1    
   116   59  125 1    
   117   60   61 1    
   118   60   62 1    
   119   60  126 1    
   120   61  127 1    
   121   61  128 1    
   122   61  129 1    
   123   62   63 2    
   124   62   64 am   BACKBONE|DICT|INTERRES
   125   64   65 1    
   126   64  130 1    
   127   65   66 1    
   128   65   69 1    
   129   65  131 1    
   130   66   67 am   BACKBONE|DICT|INTERRES
   131   66   68 2    
   132   67  132 1    
   133   67  133 1    
   134   69   70 1    
   135   69  134 1    
   136   69  135 1    
   137   70   71 1    
   138   71  136 1    
   139   71  137 1    
@<TRIPOS>SUBSTRUCTURE
     1 UNK         1 GROUP             0       ****    0 ROOT    
