@<TRIPOS>MOLECULE
3R136
137   139    1
SMALL
USER_CHARGES


@<TRIPOS>ATOM
      1 CA         27.8997   19.5621   -1.8951 C.3       0 UNK        -0.1979 
      2 C          27.7925   20.7809   -0.9905 C.2       0 UNK         0.4864 
      3 O          27.5449   20.6201    0.2045 O.2       0 UNK        -0.5359 
      4 N          27.9647   21.9798   -1.5689 N.am      1 UNK        -0.4318 
      5 CA         27.9585   23.3387   -0.9956 C.3       1 UNK         0.0824 
      6 C6         29.2487   23.7212   -0.2141 C.3       12 UNK        -0.0944 
      7 S7         29.4803   22.9088    1.4058 S.3       12 UNK        -0.2672 
      8 C8         31.1777   22.2652    1.2805 C.3       12 UNK         0.0333 
      9 C9         32.1949   23.3183    1.6935 C.ar      12 UNK        -0.0807 
     10 C10        32.4019   23.5810    3.0515 C.ar      12 UNK        -0.0894 
     11 C11        33.3232   24.5503    3.4541 C.ar      12 UNK        -0.0804 
     12 C12        34.0428   25.2577    2.4886 C.ar      12 UNK        -0.0824 
     13 C13        33.8418   25.0103    1.1273 C.ar      12 UNK        -0.0762 
     14 C14        32.9233   24.0302    0.7336 C.ar      12 UNK        -0.0782 
     15 C15        34.6152   25.8179    0.0915 C.3       12 UNK         0.0230 
     16 S16        33.5600   26.9743   -0.8475 S.3       12 UNK        -0.2608 
     17 C17        32.6156   27.8306    0.4631 C.3       12 UNK        -0.0989 
     18 CA         31.1625   27.2875    0.5384 C.3       5 UNK         0.0716 
     19 N          30.6358   27.1998    1.9038 N.am      5 UNK        -0.4135 
     20 C          30.1260   28.1849    2.6549 C.2       4 UNK         0.5031 
     21 O          30.1514   29.3816    2.3562 O.2       4 UNK        -0.5229 
     22 CA         29.3961   27.7342    3.9359 C.3       4 UNK         0.0329 
     23 CB         29.5964   28.7488    5.0747 C.3       4 UNK        -0.2001 
     24 N          27.9534   27.5063    3.7566 N.am      4 UNK        -0.4303 
     25 C          27.3645   26.7295    2.8347 C.2       3 UNK         0.5044 
     26 O          27.9679   26.1633    1.9217 O.2       3 UNK        -0.5152 
     27 CA         25.8372   26.5846    2.9288 C.3       3 UNK         0.0319 
     28 CB         25.1297   27.8444    2.4042 C.3       3 UNK        -0.2001 
     29 N          25.4091   25.4446    2.1202 N.am      3 UNK        -0.4354 
     30 C          25.1861   24.2066    2.5705 C.2       2 UNK         0.4964 
     31 O          25.1588   23.9024    3.7638 O.2       2 UNK        -0.5047 
     32 CA         24.9699   23.1148    1.5062 C.3       2 UNK         0.0288 
     33 CB         23.6644   23.3339    0.7147 C.3       2 UNK        -0.2113 
     34 N          26.1245   22.9306    0.6155 N.am      2 UNK        -0.4145 
     35 C          26.6606   23.7766   -0.2745 C.2       1 UNK         0.5006 
     36 O          26.1730   24.8757   -0.5475 O.2       1 UNK        -0.5103 
     37 C          30.1723   27.9584   -0.4436 C.2       5 UNK         0.5055 
     38 O          30.5571   28.8403   -1.2124 O.2       5 UNK        -0.5220 
     39 N          28.9021   27.5287   -0.3743 N.am      6 UNK        -0.4450 
     40 CA         27.7506   28.0324   -1.1307 C.3       6 UNK         0.0367 
     41 CB         27.9216   27.8014   -2.6474 C.3       6 UNK        -0.1929 
     42 C          27.4061   29.4868   -0.7597 C.2       6 UNK         0.5070 
     43 O          27.1703   30.3156   -1.6400 O.2       6 UNK        -0.5237 
     44 N          27.3721   29.7474    0.5561 N.am      7 UNK        -0.4739 
     45 CA         27.0417   31.0189    1.2111 C.3       7 UNK         0.0276 
     46 CB         25.5905   31.4487    0.9046 C.3       7 UNK        -0.1927 
     47 C          28.0768   32.1238    0.9293 C.2       7 UNK         0.5013 
     48 O          27.7103   33.2816    0.7203 O.2       7 UNK        -0.5193 
     49 N          29.3603   31.7455    0.9669 N.am      8 UNK        -0.4253 
     50 CA         30.5058   32.6517    0.8607 C.3       8 UNK         0.0242 
     51 CB         31.6715   31.8887    0.2110 C.3       8 UNK        -0.2000 
     52 C          30.9394   33.2158    2.2273 C.2       8 UNK         0.4948 
     53 O          31.8409   34.0541    2.2623 O.2       8 UNK        -0.5275 
     54 N          30.3241   32.7278    3.3183 N.am      9 UNK        -0.4246 
     55 CA         30.6632   32.9808    4.7263 C.3       9 UNK         0.0261 
     56 CB         30.4695   34.4668    5.0988 C.3       9 UNK        -0.1959 
     57 C          32.0579   32.4341    5.0931 C.2       9 UNK         0.5033 
     58 O          32.7955   33.0628    5.8555 O.2       9 UNK        -0.5390 
     59 N          32.3866   31.2677    4.5239 N.am      10 UNK        -0.4215 
     60 CA         33.6255   30.5246    4.7436 C.3       10 UNK         0.0240 
     61 CB         33.9092   29.7050    3.4683 C.3       10 UNK        -0.1982 
     62 C          33.5335   29.6303    5.9981 C.2       10 UNK         0.4970 
     63 O          32.6552   29.8228    6.8418 O.2       10 UNK        -0.4916 
     64 N          34.4341   28.6425    6.0727 N.am      11 UNK        -0.4279 
     65 CA         34.4526   27.5445    7.0575 C.3       11 UNK         0.1003 
     66 C          34.8984   27.9540    8.4935 C.2       11 UNK         0.5709 
     67 N          35.4386   29.1484    8.7042 N.am      11 UNK        -0.7358 
     68 O          34.7867   27.1648    9.4291 O.2       11 UNK        -0.4999 
     69 C69        33.1545   26.6761    7.0634 C.3       12 UNK        -0.0954 
     70 S70        32.5027   26.2789    5.4052 S.3       12 UNK        -0.2268 
     71 C71        33.5256   24.8596    4.9278 C.3       12 UNK         0.0203 
     72 H72        26.9638   19.0041   -1.8846 H         1 UNK         0.0888 
     73 H73        28.1206   19.8345   -2.9270 H         1 UNK         0.0888 
     74 H74        28.6929   18.9035   -1.5420 H         1 UNK         0.0888 
     75 H75        28.1263   21.9769   -2.5666 H         1 UNK         0.3017 
     76 H76        27.9780   23.9675   -1.8878 H         1 UNK         0.0873 
     77 H77        29.2599   24.7953   -0.0368 H         1 UNK         0.0745 
     78 H78        30.1176   23.5288   -0.8440 H         1 UNK         0.0745 
     79 H79        31.3724   21.8974    0.2720 H         1 UNK         0.0705 
     80 H80        31.2697   21.3999    1.9387 H         1 UNK         0.0705 
     81 H81        31.8327   23.0392    3.7948 H         1 UNK         0.1334 
     82 H82        34.7460   26.0177    2.8012 H         1 UNK         0.1417 
     83 H83        32.7646   23.8380   -0.3189 H         1 UNK         0.1562 
     84 H84        35.1006   25.1357   -0.6078 H         1 UNK         0.0748 
     85 H85        35.4170   26.3860    0.5660 H         1 UNK         0.0748 
     86 H86        32.6429   28.9065    0.2902 H         1 UNK         0.0940 
     87 H87        33.1298   27.6805    1.4106 H         1 UNK         0.0940 
     88 H88        31.1887   26.2440    0.2236 H         1 UNK         0.0703 
     89 H89        30.5105   26.2555    2.2428 H         1 UNK         0.3081 
     90 H90        29.8305   26.7853    4.2547 H         1 UNK         0.0719 
     91 H91        29.1872   28.3785    6.0147 H         1 UNK         0.0809 
     92 H92        29.1248   29.7074    4.8557 H         1 UNK         0.0809 
     93 H93        30.6566   28.9351    5.2429 H         1 UNK         0.0809 
     94 H94        27.3592   27.9428    4.4466 H         1 UNK         0.2990 
     95 H95        25.5653   26.4323    3.9754 H         1 UNK         0.0690 
     96 H96        24.0495   27.7650    2.5284 H         1 UNK         0.0788 
     97 H97        25.3258   28.0067    1.3442 H         1 UNK         0.0788 
     98 H98        25.4490   28.7374    2.9427 H         1 UNK         0.0788 
     99 H99        25.5370   25.5365    1.1156 H         1 UNK         0.2993 
    100 H100       24.8666   22.1717    2.0454 H         1 UNK         0.0949 
    101 H101       23.6800   24.2577    0.1360 H         1 UNK         0.0767 
    102 H102       23.4803   22.5110    0.0239 H         1 UNK         0.0767 
    103 H103       22.8082   23.3894    1.3882 H         1 UNK         0.0767 
    104 H104       26.6296   22.0508    0.7291 H         1 UNK         0.3013 
    105 H105       28.6709   26.8520    0.3525 H         1 UNK         0.3121 
    106 H106       26.8962   27.4352   -0.8100 H         1 UNK         0.0774 
    107 H107       27.0070   28.0571   -3.1834 H         1 UNK         0.0815 
    108 H108       28.7221   28.4113   -3.0665 H         1 UNK         0.0815 
    109 H109       28.1429   26.7568   -2.8656 H         1 UNK         0.0815 
    110 H110       27.6466   29.0006    1.1771 H         1 UNK         0.2987 
    111 H111       27.0998   30.8280    2.2839 H         1 UNK         0.0949 
    112 H112       25.4613   31.7287   -0.1412 H         1 UNK         0.0806 
    113 H113       24.8818   30.6518    1.1282 H         1 UNK         0.0806 
    114 H114       25.3046   32.3122    1.5066 H         1 UNK         0.0806 
    115 H115       29.5778   30.7769    1.1907 H         1 UNK         0.3010 
    116 H116       30.2461   33.4964    0.2192 H         1 UNK         0.0829 
    117 H117       31.3880   31.4784   -0.7585 H         1 UNK         0.0813 
    118 H118       32.5289   32.5430    0.0485 H         1 UNK         0.0813 
    119 H119       32.0045   31.0641    0.8410 H         1 UNK         0.0813 
    120 H120       29.6067   32.0347    3.1602 H         1 UNK         0.3038 
    121 H121       29.9518   32.4030    5.3184 H         1 UNK         0.0769 
    122 H122       31.2007   35.1091    4.6076 H         1 UNK         0.0811 
    123 H123       29.4750   34.8186    4.8247 H         1 UNK         0.0811 
    124 H124       30.5808   34.6156    6.1735 H         1 UNK         0.0811 
    125 H125       31.7029   30.8250    3.9264 H         1 UNK         0.3204 
    126 H126       34.4439   31.2316    4.8948 H         1 UNK         0.0748 
    127 H127       34.9075   29.2668    3.4801 H         1 UNK         0.0771 
    128 H128       33.1912   28.8918    3.3574 H         1 UNK         0.0771 
    129 H129       33.8512   30.3262    2.5739 H         1 UNK         0.0771 
    130 H130       35.1351   28.5796    5.3498 H         1 UNK         0.2980 
    131 H131       35.2553   26.8924    6.7128 H         1 UNK         0.0545 
    132 H132       35.5398   29.8035    7.9461 H         1 UNK         0.3459 
    133 H133       35.7347   29.3997    9.6342 H         1 UNK         0.3459 
    134 H134       33.3221   25.7420    7.6024 H         1 UNK         0.0616 
    135 H135       32.3608   27.1949    7.6035 H         1 UNK         0.0616 
    136 H136       33.2666   23.9982    5.5453 H         1 UNK         0.0634 
    137 H137       34.5765   25.0803    5.1192 H         1 UNK         0.0634 
@<TRIPOS>BOND
     1    1    2 1    
     2    1   72 1    
     3    1   73 1    
     4    1   74 1    
     5    2    3 2    
     6    2    4 am   BACKBONE|DICT|INTERRES
     7    4    5 1    
     8    4   75 1    
     9    5    6 1    
    10    5   35 1    
    11    5   76 1    
    12    6    7 1    
    13    6   77 1    
    14    6   78 1    
    15    7    8 1    
    16    8    9 1    
    17    8   79 1    
    18    8   80 1    
    19    9   10 ar   
    20    9   14 ar   
    21   10   11 ar   
    22   10   81 1    
    23   11   12 ar   
    24   11   71 1    
    25   12   13 ar   
    26   12   82 1    
    27   13   14 ar   
    28   13   15 1    
    29   14   83 1    
    30   15   16 1    
    31   15   84 1    
    32   15   85 1    
    33   16   17 1    
    34   17   18 1    
    35   17   86 1    
    36   17   87 1    
    37   18   19 1    
    38   18   37 1    
    39   18   88 1    
    40   19   20 am   BACKBONE|DICT|INTERRES
    41   19   89 1    
    42   20   21 2    
    43   20   22 1    
    44   22   23 1    
    45   22   24 1    
    46   22   90 1    
    47   23   91 1    
    48   23   92 1    
    49   23   93 1    
    50   24   25 am   BACKBONE|DICT|INTERRES
    51   24   94 1    
    52   25   26 2    
    53   25   27 1    
    54   27   28 1    
    55   27   29 1    
    56   27   95 1    
    57   28   96 1    
    58   28   97 1    
    59   28   98 1    
    60   29   30 am   BACKBONE|DICT|INTERRES
    61   29   99 1    
    62   30   31 2    
    63   30   32 1    
    64   32   33 1    
    65   32   34 1    
    66   32  100 1    
    67   33  101 1    
    68   33  102 1    
    69   33  103 1    
    70   34   35 am   BACKBONE|DICT|INTERRES
    71   34  104 1    
    72   35   36 2    
    73   37   38 2    
    74   37   39 am   BACKBONE|DICT|INTERRES
    75   39   40 1    
    76   39  105 1    
    77   40   41 1    
    78   40   42 1    
    79   40  106 1    
    80   41  107 1    
    81   41  108 1    
    82   41  109 1    
    83   42   43 2    
    84   42   44 am   BACKBONE|DICT|INTERRES
    85   44   45 1    
    86   44  110 1    
    87   45   46 1    
    88   45   47 1    
    89   45  111 1    
    90   46  112 1    
    91   46  113 1    
    92   46  114 1    
    93   47   48 2    
    94   47   49 am   BACKBONE|DICT|INTERRES
    95   49   50 1    
    96   49  115 1    
    97   50   51 1    
    98   50   52 1    
    99   50  116 1    
   100   51  117 1    
   101   51  118 1    
   102   51  119 1    
   103   52   53 2    
   104   52   54 am   BACKBONE|DICT|INTERRES
   105   54   55 1    
   106   54  120 1    
   107   55   56 1    
   108   55   57 1    
   109   55  121 1    
   110   56  122 1    
   111   56  123 1    
   112   56  124 1    
   113   57   58 2    
   114   57   59 am   BACKBONE|DICT|INTERRES
   115   59   60 1    
   116   59  125 1    
   117   60   61 1    
   118   60   62 1    
   119   60  126 1    
   120   61  127 1    
   121   61  128 1    
   122   61  129 1    
   123   62   63 2    
   124   62   64 am   BACKBONE|DICT|INTERRES
   125   64   65 1    
   126   64  130 1    
   127   65   66 1    
   128   65   69 1    
   129   65  131 1    
   130   66   67 am   BACKBONE|DICT|INTERRES
   131   66   68 2    
   132   67  132 1    
   133   67  133 1    
   134   69   70 1    
   135   69  134 1    
   136   69  135 1    
   137   70   71 1    
   138   71  136 1    
   139   71  137 1    
@<TRIPOS>SUBSTRUCTURE
     1 UNK         1 GROUP             0       ****    0 ROOT    
