@<TRIPOS>MOLECULE
3R136
137   139    1
SMALL
USER_CHARGES


@<TRIPOS>ATOM
      1 CA         29.0209   24.8391    5.1846 C.3       0 UNK        -0.1979 
      2 C          28.7294   24.7595    3.6936 C.2       0 UNK         0.4864 
      3 O          29.1502   25.6410    2.9482 O.2       0 UNK        -0.5359 
      4 N          28.0081   23.7130    3.2644 N.am      1 UNK        -0.4318 
      5 CA         27.6802   23.3913    1.8650 C.3       1 UNK         0.0824 
      6 C6         28.9203   23.0027    1.0116 C.3       12 UNK        -0.0944 
      7 S7         29.9238   21.6875    1.7935 S.3       12 UNK        -0.2672 
      8 C8         31.6067   22.0372    1.1826 C.3       12 UNK         0.0333 
      9 C9         32.0828   23.4428    1.5262 C.ar      12 UNK        -0.0807 
     10 C10        32.4044   23.7857    2.8449 C.ar      12 UNK        -0.0894 
     11 C11        32.8171   25.0860    3.1549 C.ar      12 UNK        -0.0804 
     12 C12        32.9159   26.0367    2.1373 C.ar      12 UNK        -0.0824 
     13 C13        32.5979   25.7075    0.8187 C.ar      12 UNK        -0.0762 
     14 C14        32.1915   24.4055    0.5169 C.ar      12 UNK        -0.0782 
     15 C15        32.6766   26.7674   -0.2703 C.3       12 UNK         0.0230 
     16 S16        31.3640   28.0161   -0.0824 S.3       12 UNK        -0.2608 
     17 C17        29.8540   27.0132   -0.3184 C.3       12 UNK        -0.0989 
     18 CA         28.8168   27.6910   -1.2497 C.3       5 UNK         0.0716 
     19 N          27.9388   26.6850   -1.8472 N.am      5 UNK        -0.4135 
     20 C          27.4718   26.7132   -3.1003 C.2       4 UNK         0.5031 
     21 O          27.7302   27.6077   -3.9073 O.2       4 UNK        -0.5229 
     22 CA         26.5857   25.5415   -3.5483 C.3       4 UNK         0.0329 
     23 CB         27.4494   24.3290   -3.9366 C.3       4 UNK        -0.2001 
     24 N          25.6206   25.1405   -2.5209 N.am      4 UNK        -0.4303 
     25 C          24.3112   24.9468   -2.7396 C.2       3 UNK         0.5044 
     26 O          23.7692   25.1045   -3.8347 O.2       3 UNK        -0.5152 
     27 CA         23.4449   24.4770   -1.5527 C.3       3 UNK         0.0319 
     28 CB         23.1786   22.9659   -1.6508 C.3       3 UNK        -0.2001 
     29 N          24.0318   24.7705   -0.2446 N.am      3 UNK        -0.4354 
     30 C          24.1558   25.9971    0.2797 C.2       2 UNK         0.4964 
     31 O          23.6694   27.0047   -0.2342 O.2       2 UNK        -0.5047 
     32 CA         24.9540   26.1329    1.5920 C.3       2 UNK         0.0288 
     33 CB         23.9982   26.3995    2.7678 C.3       2 UNK        -0.2113 
     34 N          25.8262   25.0007    1.9416 N.am      2 UNK        -0.4145 
     35 C          26.8221   24.4918    1.1976 C.2       1 UNK         0.5006 
     36 O          27.0594   24.8499    0.0406 O.2       1 UNK        -0.5103 
     37 C          27.9853   28.7526   -0.5004 C.2       5 UNK         0.5055 
     38 O          26.7813   28.5810   -0.2978 O.2       5 UNK        -0.5220 
     39 N          28.6603   29.8280   -0.0741 N.am      6 UNK        -0.4450 
     40 CA         28.1022   30.8954    0.7612 C.3       6 UNK         0.0367 
     41 CB         29.0564   32.1013    0.7367 C.3       6 UNK        -0.1929 
     42 C          27.8364   30.4605    2.2154 C.2       6 UNK         0.5070 
     43 O          27.0240   31.0972    2.8862 O.2       6 UNK        -0.5237 
     44 N          28.5311   29.4062    2.6742 N.am      7 UNK        -0.4739 
     45 CA         28.4636   28.8087    4.0160 C.3       7 UNK         0.0276 
     46 CB         27.0846   28.1605    4.2601 C.3       7 UNK        -0.1927 
     47 C          28.8932   29.7602    5.1507 C.2       7 UNK         0.5013 
     48 O          28.4124   29.6338    6.2785 O.2       7 UNK        -0.5193 
     49 N          29.8123   30.6793    4.8392 N.am      8 UNK        -0.4253 
     50 CA         30.4208   31.6310    5.7601 C.3       8 UNK         0.0242 
     51 CB         29.5178   32.8684    5.9110 C.3       8 UNK        -0.2000 
     52 C          31.7919   32.0172    5.1998 C.2       8 UNK         0.4948 
     53 O          31.9856   31.9568    3.9817 O.2       8 UNK        -0.5275 
     54 N          32.7118   32.4043    6.0943 N.am      9 UNK        -0.4246 
     55 CA         34.0862   32.8822    5.8641 C.3       9 UNK         0.0261 
     56 CB         34.0899   34.1965    5.0590 C.3       9 UNK        -0.1959 
     57 C          35.0568   31.8603    5.2395 C.2       9 UNK         0.5033 
     58 O          36.1906   31.7516    5.7075 O.2       9 UNK        -0.5390 
     59 N          34.6066   31.1282    4.2142 N.am      10 UNK        -0.4215 
     60 CA         35.3773   30.1803    3.4022 C.3       10 UNK         0.0240 
     61 CB         34.4713   29.6404    2.2838 C.3       10 UNK        -0.1982 
     62 C          36.0420   29.0276    4.1804 C.2       10 UNK         0.4970 
     63 O          37.1000   28.5612    3.7556 O.2       10 UNK        -0.4916 
     64 N          35.4343   28.6131    5.2988 N.am      11 UNK        -0.4279 
     65 CA         35.9902   27.6407    6.2571 C.3       11 UNK         0.1003 
     66 C          36.3642   28.2946    7.6209 C.2       11 UNK         0.5709 
     67 N          36.4549   29.6157    7.7288 N.am      11 UNK        -0.7358 
     68 O          36.5972   27.5945    8.6036 O.2       11 UNK        -0.4999 
     69 C69        35.0727   26.3966    6.4248 C.3       12 UNK        -0.0954 
     70 S70        34.9314   25.4324    4.8826 S.3       12 UNK        -0.2268 
     71 C71        33.1408   25.4891    4.5838 C.3       12 UNK         0.0203 
     72 H72        30.0950   24.7784    5.3551 H         1 UNK         0.0888 
     73 H73        28.6655   25.7856    5.5895 H         1 UNK         0.0888 
     74 H74        28.5429   24.0314    5.7385 H         1 UNK         0.0888 
     75 H75        27.7005   23.0277    3.9402 H         1 UNK         0.3017 
     76 H76        27.0361   22.5116    1.9071 H         1 UNK         0.0873 
     77 H77        29.5329   23.8868    0.8386 H         1 UNK         0.0745 
     78 H78        28.6131   22.6486    0.0259 H         1 UNK         0.0745 
     79 H79        31.6298   21.8732    0.1041 H         1 UNK         0.0705 
     80 H80        32.2955   21.3102    1.6150 H         1 UNK         0.0705 
     81 H81        32.3172   23.0451    3.6281 H         1 UNK         0.1334 
     82 H82        33.2276   27.0414    2.3758 H         1 UNK         0.1417 
     83 H83        31.9385   24.1459   -0.5020 H         1 UNK         0.1562 
     84 H84        32.6115   26.3186   -1.2627 H         1 UNK         0.0748 
     85 H85        33.6469   27.2638   -0.2208 H         1 UNK         0.0748 
     86 H86        29.4230   26.7684    0.6537 H         1 UNK         0.0940 
     87 H87        30.1517   26.0562   -0.7489 H         1 UNK         0.0940 
     88 H88        29.3556   28.2004   -2.0518 H         1 UNK         0.0703 
     89 H89        27.6318   25.9515   -1.2117 H         1 UNK         0.3081 
     90 H90        26.0598   25.8790   -4.4440 H         1 UNK         0.0719 
     91 H91        28.1878   24.5997   -4.6927 H         1 UNK         0.0809 
     92 H92        27.9901   23.9267   -3.0788 H         1 UNK         0.0809 
     93 H93        26.8391   23.5274   -4.3528 H         1 UNK         0.0809 
     94 H94        25.9806   25.0047   -1.5814 H         1 UNK         0.2990 
     95 H95        22.4873   24.9978   -1.6205 H         1 UNK         0.0690 
     96 H96        22.5073   22.6282   -0.8609 H         1 UNK         0.0788 
     97 H97        24.1008   22.3875   -1.5805 H         1 UNK         0.0788 
     98 H98        22.7081   22.7136   -2.6023 H         1 UNK         0.0788 
     99 H99        24.4437   23.9959    0.2540 H         1 UNK         0.2993 
    100 H100       25.5989   27.0049    1.4704 H         1 UNK         0.0949 
    101 H101       23.3732   27.2725    2.5735 H         1 UNK         0.0767 
    102 H102       23.3316   25.5541    2.9431 H         1 UNK         0.0767 
    103 H103       24.5413   26.5954    3.6921 H         1 UNK         0.0767 
    104 H104       25.7096   24.6288    2.8729 H         1 UNK         0.3013 
    105 H105       29.6524   29.8725   -0.2673 H         1 UNK         0.3121 
    106 H106       27.1466   31.2025    0.3304 H         1 UNK         0.0774 
    107 H107       28.6554   32.9274    1.3259 H         1 UNK         0.0815 
    108 H108       30.0347   31.8530    1.1509 H         1 UNK         0.0815 
    109 H109       29.2037   32.4717   -0.2779 H         1 UNK         0.0815 
    110 H110       29.1762   28.9614    2.0361 H         1 UNK         0.2987 
    111 H111       29.2051   28.0094    4.0246 H         1 UNK         0.0949 
    112 H112       27.0540   27.6388    5.2169 H         1 UNK         0.0806 
    113 H113       26.8647   27.4252    3.4881 H         1 UNK         0.0806 
    114 H114       26.2813   28.8974    4.2664 H         1 UNK         0.0806 
    115 H115       30.1913   30.7095    3.9007 H         1 UNK         0.3010 
    116 H116       30.5601   31.1535    6.7327 H         1 UNK         0.0829 
    117 H117       29.3516   33.3624    4.9526 H         1 UNK         0.0813 
    118 H118       28.5436   32.6011    6.3208 H         1 UNK         0.0813 
    119 H119       29.9627   33.6012    6.5853 H         1 UNK         0.0813 
    120 H120       32.4401   32.3833    7.0682 H         1 UNK         0.3038 
    121 H121       34.4823   33.1110    6.8551 H         1 UNK         0.0769 
    122 H122       35.1016   34.5939    4.9668 H         1 UNK         0.0811 
    123 H123       33.4856   34.9614    5.5468 H         1 UNK         0.0811 
    124 H124       33.7034   34.0590    4.0486 H         1 UNK         0.0811 
    125 H125       33.6488   31.3174    3.9186 H         1 UNK         0.3204 
    126 H126       36.1865   30.7458    2.9358 H         1 UNK         0.0748 
    127 H127       34.9663   28.8542    1.7116 H         1 UNK         0.0771 
    128 H128       33.5450   29.2303    2.6855 H         1 UNK         0.0771 
    129 H129       34.2020   30.4291    1.5809 H         1 UNK         0.0771 
    130 H130       34.5794   29.0685    5.5802 H         1 UNK         0.2980 
    131 H131       36.9464   27.2732    5.8812 H         1 UNK         0.0545 
    132 H132       36.3440   30.2246    6.9248 H         1 UNK         0.3459 
    133 H133       36.7061   30.0123    8.6202 H         1 UNK         0.3459 
    134 H134       35.4738   25.7177    7.1793 H         1 UNK         0.0616 
    135 H135       34.0849   26.6943    6.7802 H         1 UNK         0.0616 
    136 H136       32.6355   24.8341    5.2949 H         1 UNK         0.0634 
    137 H137       32.7683   26.4982    4.7680 H         1 UNK         0.0634 
@<TRIPOS>BOND
     1    1    2 1    
     2    1   72 1    
     3    1   73 1    
     4    1   74 1    
     5    2    3 2    
     6    2    4 am   BACKBONE|DICT|INTERRES
     7    4    5 1    
     8    4   75 1    
     9    5    6 1    
    10    5   35 1    
    11    5   76 1    
    12    6    7 1    
    13    6   77 1    
    14    6   78 1    
    15    7    8 1    
    16    8    9 1    
    17    8   79 1    
    18    8   80 1    
    19    9   10 ar   
    20    9   14 ar   
    21   10   11 ar   
    22   10   81 1    
    23   11   12 ar   
    24   11   71 1    
    25   12   13 ar   
    26   12   82 1    
    27   13   14 ar   
    28   13   15 1    
    29   14   83 1    
    30   15   16 1    
    31   15   84 1    
    32   15   85 1    
    33   16   17 1    
    34   17   18 1    
    35   17   86 1    
    36   17   87 1    
    37   18   19 1    
    38   18   37 1    
    39   18   88 1    
    40   19   20 am   BACKBONE|DICT|INTERRES
    41   19   89 1    
    42   20   21 2    
    43   20   22 1    
    44   22   23 1    
    45   22   24 1    
    46   22   90 1    
    47   23   91 1    
    48   23   92 1    
    49   23   93 1    
    50   24   25 am   BACKBONE|DICT|INTERRES
    51   24   94 1    
    52   25   26 2    
    53   25   27 1    
    54   27   28 1    
    55   27   29 1    
    56   27   95 1    
    57   28   96 1    
    58   28   97 1    
    59   28   98 1    
    60   29   30 am   BACKBONE|DICT|INTERRES
    61   29   99 1    
    62   30   31 2    
    63   30   32 1    
    64   32   33 1    
    65   32   34 1    
    66   32  100 1    
    67   33  101 1    
    68   33  102 1    
    69   33  103 1    
    70   34   35 am   BACKBONE|DICT|INTERRES
    71   34  104 1    
    72   35   36 2    
    73   37   38 2    
    74   37   39 am   BACKBONE|DICT|INTERRES
    75   39   40 1    
    76   39  105 1    
    77   40   41 1    
    78   40   42 1    
    79   40  106 1    
    80   41  107 1    
    81   41  108 1    
    82   41  109 1    
    83   42   43 2    
    84   42   44 am   BACKBONE|DICT|INTERRES
    85   44   45 1    
    86   44  110 1    
    87   45   46 1    
    88   45   47 1    
    89   45  111 1    
    90   46  112 1    
    91   46  113 1    
    92   46  114 1    
    93   47   48 2    
    94   47   49 am   BACKBONE|DICT|INTERRES
    95   49   50 1    
    96   49  115 1    
    97   50   51 1    
    98   50   52 1    
    99   50  116 1    
   100   51  117 1    
   101   51  118 1    
   102   51  119 1    
   103   52   53 2    
   104   52   54 am   BACKBONE|DICT|INTERRES
   105   54   55 1    
   106   54  120 1    
   107   55   56 1    
   108   55   57 1    
   109   55  121 1    
   110   56  122 1    
   111   56  123 1    
   112   56  124 1    
   113   57   58 2    
   114   57   59 am   BACKBONE|DICT|INTERRES
   115   59   60 1    
   116   59  125 1    
   117   60   61 1    
   118   60   62 1    
   119   60  126 1    
   120   61  127 1    
   121   61  128 1    
   122   61  129 1    
   123   62   63 2    
   124   62   64 am   BACKBONE|DICT|INTERRES
   125   64   65 1    
   126   64  130 1    
   127   65   66 1    
   128   65   69 1    
   129   65  131 1    
   130   66   67 am   BACKBONE|DICT|INTERRES
   131   66   68 2    
   132   67  132 1    
   133   67  133 1    
   134   69   70 1    
   135   69  134 1    
   136   69  135 1    
   137   70   71 1    
   138   71  136 1    
   139   71  137 1    
@<TRIPOS>SUBSTRUCTURE
     1 UNK         1 GROUP             0       ****    0 ROOT    
