@<TRIPOS>MOLECULE
3R136
137   139    1
SMALL
USER_CHARGES


@<TRIPOS>ATOM
      1 CA         30.7070   20.5218    0.2398 C.3       0 UNK        -0.1979 
      2 C          29.8849   21.0915   -0.9067 C.2       0 UNK         0.4864 
      3 O          29.1731   20.3483   -1.5836 O.2       0 UNK        -0.5359 
      4 N          29.9645   22.4103   -1.1220 N.am      1 UNK        -0.4318 
      5 CA         29.2722   23.1891   -2.1577 C.3       1 UNK         0.0824 
      6 C6         30.0269   24.5184   -2.4500 C.3       12 UNK        -0.0944 
      7 S7         30.3025   25.5777   -0.9833 S.3       12 UNK        -0.2672 
      8 C8         31.9475   25.0338   -0.4131 C.3       12 UNK         0.0333 
      9 C9         32.0134   24.9129    1.1052 C.ar      12 UNK        -0.0807 
     10 C10        33.0806   25.4767    1.8099 C.ar      12 UNK        -0.0894 
     11 C11        33.1488   25.3739    3.2032 C.ar      12 UNK        -0.0804 
     12 C12        32.1397   24.6958    3.8954 C.ar      12 UNK        -0.0824 
     13 C13        31.0732   24.1158    3.2025 C.ar      12 UNK        -0.0762 
     14 C14        31.0229   24.2218    1.8108 C.ar      12 UNK        -0.0782 
     15 C15        29.9814   23.3583    3.9475 C.3       12 UNK         0.0230 
     16 S16        28.3117   23.9716    3.5466 S.3       12 UNK        -0.2608 
     17 C17        28.3287   25.6194    4.3249 C.3       12 UNK        -0.0989 
     18 CA         28.6150   26.7766    3.3335 C.3       5 UNK         0.0716 
     19 N          27.7074   26.7635    2.1753 N.am      5 UNK        -0.4135 
     20 C          27.7009   27.6516    1.1701 C.2       4 UNK         0.5031 
     21 O          28.5019   28.5833    1.0978 O.2       4 UNK        -0.5229 
     22 CA         26.5910   27.5525    0.1035 C.3       4 UNK         0.0329 
     23 CB         27.1420   27.7439   -1.3197 C.3       4 UNK        -0.2001 
     24 N          25.7718   26.3351    0.1615 N.am      4 UNK        -0.4303 
     25 C          24.7995   26.1195    1.0619 C.2       3 UNK         0.5044 
     26 O          24.5801   26.8839    2.0026 O.2       3 UNK        -0.5152 
     27 CA         23.9095   24.8713    0.9046 C.3       3 UNK         0.0319 
     28 CB         22.4571   25.2827    0.6079 C.3       3 UNK        -0.2001 
     29 N          24.3556   23.9511   -0.1430 N.am      3 UNK        -0.4354 
     30 C          25.3127   23.0270    0.0045 C.2       2 UNK         0.4964 
     31 O          25.9280   22.8447    1.0551 O.2       2 UNK        -0.5047 
     32 CA         25.6500   22.1545   -1.2214 C.3       2 UNK         0.0288 
     33 CB         24.7634   22.4187   -2.4616 C.3       2 UNK        -0.2113 
     34 N          27.0689   22.2559   -1.5754 N.am      2 UNK        -0.4145 
     35 C          27.7573   23.3673   -1.8735 C.2       1 UNK         0.5006 
     36 O          27.2363   24.4831   -1.9300 O.2       1 UNK        -0.5103 
     37 C          28.6008   28.1145    4.1070 C.2       5 UNK         0.5055 
     38 O          29.6291   28.5057    4.6541 O.2       5 UNK        -0.5220 
     39 N          27.4431   28.7907    4.1387 N.am      6 UNK        -0.4450 
     40 CA         27.2719   30.1082    4.7548 C.3       6 UNK         0.0367 
     41 CB         25.7827   30.3142    5.0780 C.3       6 UNK        -0.1929 
     42 C          27.7935   31.2673    3.8829 C.2       6 UNK         0.5070 
     43 O          28.0308   32.3509    4.4174 O.2       6 UNK        -0.5237 
     44 N          27.9323   31.0445    2.5686 N.am      7 UNK        -0.4739 
     45 CA         28.3832   32.0437    1.5967 C.3       7 UNK         0.0276 
     46 CB         27.5672   31.8882    0.3025 C.3       7 UNK        -0.1927 
     47 C          29.8862   31.9276    1.2976 C.2       7 UNK         0.5013 
     48 O          30.5053   32.9376    0.9587 O.2       7 UNK        -0.5193 
     49 N          30.4401   30.7112    1.4061 N.am      8 UNK        -0.4253 
     50 CA         31.8531   30.3954    1.1890 C.3       8 UNK         0.0242 
     51 CB         32.0412   28.8721    1.2670 C.3       8 UNK        -0.2000 
     52 C          32.7870   31.1408    2.1643 C.2       8 UNK         0.4948 
     53 O          32.4475   31.3105    3.3387 O.2       8 UNK        -0.5275 
     54 N          33.9341   31.5933    1.6377 N.am      9 UNK        -0.4246 
     55 CA         34.8943   32.4925    2.2854 C.3       9 UNK         0.0261 
     56 CB         36.0528   32.7777    1.3134 C.3       9 UNK        -0.1959 
     57 C          35.4208   31.9703    3.6337 C.2       9 UNK         0.5033 
     58 O          36.2203   31.0327    3.6526 O.2       9 UNK        -0.5390 
     59 N          34.9554   32.6006    4.7227 N.am      10 UNK        -0.4215 
     60 CA         35.2755   32.3277    6.1314 C.3       10 UNK         0.0240 
     61 CB         36.7679   32.6023    6.4186 C.3       10 UNK        -0.1982 
     62 C          34.8260   30.9410    6.6404 C.2       10 UNK         0.4970 
     63 O          35.2818   30.5171    7.7045 O.2       10 UNK        -0.4916 
     64 N          33.9398   30.2651    5.9008 N.am      11 UNK        -0.4279 
     65 CA         33.3689   28.9627    6.2657 C.3       11 UNK         0.1003 
     66 C          32.2253   29.0920    7.3097 C.2       11 UNK         0.5709 
     67 N          31.8999   28.0083    8.0026 N.am      11 UNK        -0.7358 
     68 O          31.6276   30.1507    7.4996 O.2       11 UNK        -0.4999 
     69 C69        32.9095   28.1915    5.0057 C.3       12 UNK        -0.0954 
     70 S70        34.3064   27.7973    3.9002 S.3       12 UNK        -0.2268 
     71 C71        34.3268   25.9796    3.9537 C.3       12 UNK         0.0203 
     72 H72        31.3355   21.2786    0.7092 H         1 UNK         0.0888 
     73 H73        30.0486   20.1066    1.0024 H         1 UNK         0.0888 
     74 H74        31.3541   19.7238   -0.1235 H         1 UNK         0.0888 
     75 H75        30.5522   22.9662   -0.5202 H         1 UNK         0.3017 
     76 H76        29.3161   22.6038   -3.0788 H         1 UNK         0.0873 
     77 H77        30.9927   24.2974   -2.9072 H         1 UNK         0.0745 
     78 H78        29.4897   25.1050   -3.1976 H         1 UNK         0.0745 
     79 H79        32.2130   24.0713   -0.8505 H         1 UNK         0.0705 
     80 H80        32.6865   25.7492   -0.7773 H         1 UNK         0.0705 
     81 H81        33.8608   26.0039    1.2778 H         1 UNK         0.1334 
     82 H82        32.1898   24.6129    4.9725 H         1 UNK         0.1417 
     83 H83        30.1863   23.7845    1.2860 H         1 UNK         0.1562 
     84 H84        30.1334   23.4052    5.0269 H         1 UNK         0.0748 
     85 H85        30.0406   22.3039    3.6746 H         1 UNK         0.0748 
     86 H86        29.0631   25.6212    5.1333 H         1 UNK         0.0940 
     87 H87        27.3580   25.7608    4.8047 H         1 UNK         0.0940 
     88 H88        29.6253   26.6512    2.9384 H         1 UNK         0.0703 
     89 H89        27.0236   26.0212    2.1596 H         1 UNK         0.3081 
     90 H90        25.9281   28.3991    0.2949 H         1 UNK         0.0719 
     91 H91        27.6619   28.6975   -1.4178 H         1 UNK         0.0809 
     92 H92        27.8524   26.9641   -1.5859 H         1 UNK         0.0809 
     93 H93        26.3429   27.7353   -2.0608 H         1 UNK         0.0809 
     94 H94        25.9508   25.6389   -0.5541 H         1 UNK         0.2990 
     95 H95        23.9216   24.3466    1.8624 H         1 UNK         0.0690 
     96 H96        21.8008   24.4136    0.5565 H         1 UNK         0.0788 
     97 H97        22.3747   25.8233   -0.3359 H         1 UNK         0.0788 
     98 H98        22.0657   25.9337    1.3911 H         1 UNK         0.0788 
     99 H99        23.9167   24.0443   -1.0480 H         1 UNK         0.2993 
    100 H100       25.4831   21.1224   -0.9095 H         1 UNK         0.0949 
    101 H101       24.8749   23.4344   -2.8432 H         1 UNK         0.0767 
    102 H102       25.0199   21.7370   -3.2728 H         1 UNK         0.0767 
    103 H103       23.7081   22.2571   -2.2372 H         1 UNK         0.0767 
    104 H104       27.6042   21.3912   -1.5362 H         1 UNK         0.3013 
    105 H105       26.6371   28.3923    3.6772 H         1 UNK         0.3121 
    106 H106       27.8297   30.1303    5.6938 H         1 UNK         0.0774 
    107 H107       25.1673   30.2982    4.1775 H         1 UNK         0.0815 
    108 H108       25.4122   29.5428    5.7533 H         1 UNK         0.0815 
    109 H109       25.6190   31.2756    5.5670 H         1 UNK         0.0815 
    110 H110       27.7947   30.1061    2.2115 H         1 UNK         0.2987 
    111 H111       28.2037   33.0481    1.9871 H         1 UNK         0.0949 
    112 H112       26.5005   32.0137    0.4887 H         1 UNK         0.0806 
    113 H113       27.8580   32.6390   -0.4336 H         1 UNK         0.0806 
    114 H114       27.7153   30.9097   -0.1554 H         1 UNK         0.0806 
    115 H115       29.8294   29.9280    1.6139 H         1 UNK         0.3010 
    116 H116       32.0965   30.7138    0.1733 H         1 UNK         0.0829 
    117 H117       31.7021   28.4707    2.2217 H         1 UNK         0.0813 
    118 H118       31.4799   28.3626    0.4830 H         1 UNK         0.0813 
    119 H119       33.0893   28.5963    1.1467 H         1 UNK         0.0813 
    120 H120       34.1351   31.3632    0.6755 H         1 UNK         0.3038 
    121 H121       34.3753   33.4372    2.4606 H         1 UNK         0.0769 
    122 H122       36.5789   31.8641    1.0329 H         1 UNK         0.0811 
    123 H123       35.6990   33.2563    0.4000 H         1 UNK         0.0811 
    124 H124       36.7851   33.4482    1.7654 H         1 UNK         0.0811 
    125 H125       34.2655   33.3258    4.5776 H         1 UNK         0.3204 
    126 H126       34.6965   33.0493    6.7095 H         1 UNK         0.0748 
    127 H127       37.4148   31.8719    5.9318 H         1 UNK         0.0771 
    128 H128       37.0628   33.5938    6.0749 H         1 UNK         0.0771 
    129 H129       36.9777   32.5581    7.4881 H         1 UNK         0.0771 
    130 H130       33.5745   30.6842    5.0532 H         1 UNK         0.2980 
    131 H131       34.1571   28.3750    6.7409 H         1 UNK         0.0545 
    132 H132       31.1583   28.0688    8.6821 H         1 UNK         0.3459 
    133 H133       32.3813   27.1343    7.8627 H         1 UNK         0.3459 
    134 H134       32.1916   28.7899    4.4460 H         1 UNK         0.0616 
    135 H135       32.3906   27.2713    5.2770 H         1 UNK         0.0616 
    136 H136       34.3467   25.6486    4.9932 H         1 UNK         0.0634 
    137 H137       35.2550   25.6272    3.5020 H         1 UNK         0.0634 
@<TRIPOS>BOND
     1    1    2 1    
     2    1   72 1    
     3    1   73 1    
     4    1   74 1    
     5    2    3 2    
     6    2    4 am   BACKBONE|DICT|INTERRES
     7    4    5 1    
     8    4   75 1    
     9    5    6 1    
    10    5   35 1    
    11    5   76 1    
    12    6    7 1    
    13    6   77 1    
    14    6   78 1    
    15    7    8 1    
    16    8    9 1    
    17    8   79 1    
    18    8   80 1    
    19    9   10 ar   
    20    9   14 ar   
    21   10   11 ar   
    22   10   81 1    
    23   11   12 ar   
    24   11   71 1    
    25   12   13 ar   
    26   12   82 1    
    27   13   14 ar   
    28   13   15 1    
    29   14   83 1    
    30   15   16 1    
    31   15   84 1    
    32   15   85 1    
    33   16   17 1    
    34   17   18 1    
    35   17   86 1    
    36   17   87 1    
    37   18   19 1    
    38   18   37 1    
    39   18   88 1    
    40   19   20 am   BACKBONE|DICT|INTERRES
    41   19   89 1    
    42   20   21 2    
    43   20   22 1    
    44   22   23 1    
    45   22   24 1    
    46   22   90 1    
    47   23   91 1    
    48   23   92 1    
    49   23   93 1    
    50   24   25 am   BACKBONE|DICT|INTERRES
    51   24   94 1    
    52   25   26 2    
    53   25   27 1    
    54   27   28 1    
    55   27   29 1    
    56   27   95 1    
    57   28   96 1    
    58   28   97 1    
    59   28   98 1    
    60   29   30 am   BACKBONE|DICT|INTERRES
    61   29   99 1    
    62   30   31 2    
    63   30   32 1    
    64   32   33 1    
    65   32   34 1    
    66   32  100 1    
    67   33  101 1    
    68   33  102 1    
    69   33  103 1    
    70   34   35 am   BACKBONE|DICT|INTERRES
    71   34  104 1    
    72   35   36 2    
    73   37   38 2    
    74   37   39 am   BACKBONE|DICT|INTERRES
    75   39   40 1    
    76   39  105 1    
    77   40   41 1    
    78   40   42 1    
    79   40  106 1    
    80   41  107 1    
    81   41  108 1    
    82   41  109 1    
    83   42   43 2    
    84   42   44 am   BACKBONE|DICT|INTERRES
    85   44   45 1    
    86   44  110 1    
    87   45   46 1    
    88   45   47 1    
    89   45  111 1    
    90   46  112 1    
    91   46  113 1    
    92   46  114 1    
    93   47   48 2    
    94   47   49 am   BACKBONE|DICT|INTERRES
    95   49   50 1    
    96   49  115 1    
    97   50   51 1    
    98   50   52 1    
    99   50  116 1    
   100   51  117 1    
   101   51  118 1    
   102   51  119 1    
   103   52   53 2    
   104   52   54 am   BACKBONE|DICT|INTERRES
   105   54   55 1    
   106   54  120 1    
   107   55   56 1    
   108   55   57 1    
   109   55  121 1    
   110   56  122 1    
   111   56  123 1    
   112   56  124 1    
   113   57   58 2    
   114   57   59 am   BACKBONE|DICT|INTERRES
   115   59   60 1    
   116   59  125 1    
   117   60   61 1    
   118   60   62 1    
   119   60  126 1    
   120   61  127 1    
   121   61  128 1    
   122   61  129 1    
   123   62   63 2    
   124   62   64 am   BACKBONE|DICT|INTERRES
   125   64   65 1    
   126   64  130 1    
   127   65   66 1    
   128   65   69 1    
   129   65  131 1    
   130   66   67 am   BACKBONE|DICT|INTERRES
   131   66   68 2    
   132   67  132 1    
   133   67  133 1    
   134   69   70 1    
   135   69  134 1    
   136   69  135 1    
   137   70   71 1    
   138   71  136 1    
   139   71  137 1    
@<TRIPOS>SUBSTRUCTURE
     1 UNK         1 GROUP             0       ****    0 ROOT    
