@<TRIPOS>MOLECULE
3R136
137   139    1
SMALL
USER_CHARGES


@<TRIPOS>ATOM
      1 CA         30.8245   19.6761   -0.6955 C.3       0 UNK        -0.1979 
      2 C          30.1388   21.0047   -0.9772 C.2       0 UNK         0.4864 
      3 O          29.7662   21.2704   -2.1205 O.2       0 UNK        -0.5359 
      4 N          29.9696   21.8406    0.0565 N.am      1 UNK        -0.4318 
      5 CA         29.3164   23.1534   -0.0187 C.3       1 UNK         0.0824 
      6 C6         29.6752   24.0506    1.1919 C.3       12 UNK        -0.0944 
      7 S7         29.3838   23.2657    2.8197 S.3       12 UNK        -0.2672 
      8 C8         28.3487   24.5018    3.6816 C.3       12 UNK         0.0333 
      9 C9         28.9497   25.9057    3.7610 C.ar      12 UNK        -0.0807 
     10 C10        30.3329   26.1168    3.8246 C.ar      12 UNK        -0.0894 
     11 C11        30.8558   27.4116    3.8536 C.ar      12 UNK        -0.0804 
     12 C12        29.9875   28.5056    3.8360 C.ar      12 UNK        -0.0824 
     13 C13        28.6037   28.3143    3.8059 C.ar      12 UNK        -0.0762 
     14 C14        28.0931   27.0117    3.7777 C.ar      12 UNK        -0.0782 
     15 C15        27.6656   29.5159    3.8120 C.3       12 UNK         0.0230 
     16 S16        26.4951   29.5065    2.4134 S.3       12 UNK        -0.2608 
     17 C17        27.6038   29.7570    0.9841 C.3       12 UNK        -0.0989 
     18 CA         28.0369   28.4214    0.3189 C.3       5 UNK         0.0716 
     19 N          26.9223   27.5573   -0.0838 N.am      5 UNK        -0.4135 
     20 C          25.9686   27.8227   -0.9890 C.2       4 UNK         0.5031 
     21 O          25.8929   28.8700   -1.6324 O.2       4 UNK        -0.5229 
     22 CA         24.9105   26.7304   -1.2263 C.3       4 UNK         0.0329 
     23 CB         25.1340   26.0548   -2.5900 C.3       4 UNK        -0.2001 
     24 N          24.9205   25.7027   -0.1815 N.am      4 UNK        -0.4303 
     25 C          24.2006   25.7461    0.9498 C.2       3 UNK         0.5044 
     26 O          23.4290   26.6668    1.2217 O.2       3 UNK        -0.5152 
     27 CA         24.3838   24.5943    1.9667 C.3       3 UNK         0.0319 
     28 CB         23.0518   24.1787    2.6268 C.3       3 UNK        -0.2001 
     29 N          25.1004   23.4226    1.4390 N.am      3 UNK        -0.4354 
     30 C          24.7207   22.6140    0.4365 C.2       2 UNK         0.4964 
     31 O          23.6254   22.6862   -0.1224 O.2       2 UNK        -0.5047 
     32 CA         25.7580   21.5767   -0.0493 C.3       2 UNK         0.0288 
     33 CB         25.5493   21.2029   -1.5325 C.3       2 UNK        -0.2113 
     34 N          27.1660   21.9522    0.1677 N.am      2 UNK        -0.4145 
     35 C          27.7910   23.0730   -0.2348 C.2       1 UNK         0.5006 
     36 O          27.2156   24.0365   -0.7433 O.2       1 UNK        -0.5103 
     37 C          29.0193   28.6228   -0.8505 C.2       5 UNK         0.5055 
     38 O          29.1159   29.7150   -1.4136 O.2       5 UNK        -0.5220 
     39 N          29.7327   27.5400   -1.1944 N.am      6 UNK        -0.4450 
     40 CA         30.7882   27.5082   -2.2149 C.3       6 UNK         0.0367 
     41 CB         31.1760   26.0440   -2.4817 C.3       6 UNK        -0.1929 
     42 C          32.0369   28.3399   -1.8512 C.2       6 UNK         0.5070 
     43 O          32.8199   28.6749   -2.7406 O.2       6 UNK        -0.5237 
     44 N          32.1936   28.6631   -0.5642 N.am      7 UNK        -0.4739 
     45 CA         33.1726   29.5925   -0.0123 C.3       7 UNK         0.0276 
     46 CB         34.3267   28.7962    0.6226 C.3       7 UNK        -0.1927 
     47 C          32.4541   30.4748    1.0201 C.2       7 UNK         0.5013 
     48 O          31.3101   30.1843    1.3824 O.2       7 UNK        -0.5193 
     49 N          33.1307   31.5359    1.4763 N.am      8 UNK        -0.4253 
     50 CA         32.6315   32.4530    2.5047 C.3       8 UNK         0.0242 
     51 CB         33.5757   33.6628    2.6003 C.3       8 UNK        -0.2000 
     52 C          32.5073   31.7675    3.8754 C.2       8 UNK         0.4948 
     53 O          33.3229   30.9041    4.2012 O.2       8 UNK        -0.5275 
     54 N          31.5320   32.2125    4.6804 N.am      9 UNK        -0.4246 
     55 CA         31.1794   31.6735    6.0045 C.3       9 UNK         0.0261 
     56 CB         29.8983   32.3690    6.4958 C.3       9 UNK        -0.1959 
     57 C          32.2848   31.7337    7.0818 C.2       9 UNK         0.5033 
     58 O          32.1023   31.1674    8.1600 O.2       9 UNK        -0.5390 
     59 N          33.4133   32.3867    6.7762 N.am      10 UNK        -0.4215 
     60 CA         34.6525   32.3616    7.5552 C.3       10 UNK         0.0240 
     61 CB         35.5570   33.5097    7.0747 C.3       10 UNK        -0.1982 
     62 C          35.4030   31.0126    7.4879 C.2       10 UNK         0.4970 
     63 O          36.3674   30.8426    8.2358 O.2       10 UNK        -0.4916 
     64 N          34.9802   30.0986    6.5999 N.am      11 UNK        -0.4279 
     65 CA         35.5024   28.7324    6.4382 C.3       11 UNK         0.1003 
     66 C          35.5564   27.8865    7.7461 C.2       11 UNK         0.5709 
     67 N          36.4848   26.9424    7.8303 N.am      11 UNK        -0.7358 
     68 O          34.7538   28.0497    8.6639 O.2       11 UNK        -0.4999 
     69 C69        34.7583   27.9793    5.3004 C.3       12 UNK        -0.0954 
     70 S70        32.9684   27.7471    5.5958 S.3       12 UNK        -0.2268 
     71 C71        32.3594   27.6274    3.8891 C.3       12 UNK         0.0203 
     72 H72        30.1622   18.8501   -0.9534 H         1 UNK         0.0888 
     73 H73        31.7301   19.5871   -1.2950 H         1 UNK         0.0888 
     74 H74        31.1013   19.5742    0.3537 H         1 UNK         0.0888 
     75 H75        30.3005   21.5777    0.9752 H         1 UNK         0.3017 
     76 H76        29.7088   23.6500   -0.9089 H         1 UNK         0.0873 
     77 H77        29.1452   25.0028    1.1337 H         1 UNK         0.0745 
     78 H78        30.7343   24.3090    1.1443 H         1 UNK         0.0745 
     79 H79        27.3828   24.5398    3.1784 H         1 UNK         0.0705 
     80 H80        28.1566   24.1484    4.6953 H         1 UNK         0.0705 
     81 H81        31.0111   25.2751    3.8397 H         1 UNK         0.1334 
     82 H82        30.3951   29.5066    3.8438 H         1 UNK         0.1417 
     83 H83        27.0218   26.8645    3.7514 H         1 UNK         0.1562 
     84 H84        28.2262   30.4522    3.8005 H         1 UNK         0.0748 
     85 H85        27.0981   29.5104    4.7434 H         1 UNK         0.0748 
     86 H86        28.4812   30.3207    1.3079 H         1 UNK         0.0940 
     87 H87        27.0874   30.3951    0.2650 H         1 UNK         0.0940 
     88 H88        28.5902   27.8587    1.0709 H         1 UNK         0.0703 
     89 H89        26.8801   26.6572    0.3686 H         1 UNK         0.3081 
     90 H90        23.9332   27.2173   -1.2463 H         1 UNK         0.0719 
     91 H91        25.0683   26.7816   -3.4007 H         1 UNK         0.0809 
     92 H92        26.1160   25.5847   -2.6539 H         1 UNK         0.0809 
     93 H93        24.3827   25.2881   -2.7803 H         1 UNK         0.0809 
     94 H94        25.5533   24.9216   -0.3348 H         1 UNK         0.2990 
     95 H95        25.0184   25.0016    2.7544 H         1 UNK         0.0690 
     96 H96        23.2003   23.3780    3.3512 H         1 UNK         0.0788 
     97 H97        22.3230   23.8363    1.8918 H         1 UNK         0.0788 
     98 H98        22.6012   25.0160    3.1611 H         1 UNK         0.0788 
     99 H99        26.0185   23.2622    1.8277 H         1 UNK         0.2993 
    100 H100       25.5827   20.6800    0.5471 H         1 UNK         0.0949 
    101 H101       25.6529   22.0722   -2.1834 H         1 UNK         0.0767 
    102 H102       26.2718   20.4542   -1.8583 H         1 UNK         0.0767 
    103 H103       24.5559   20.7848   -1.7004 H         1 UNK         0.0767 
    104 H104       27.7372   21.2489    0.6154 H         1 UNK         0.3013 
    105 H105       29.5651   26.6768   -0.7005 H         1 UNK         0.3121 
    106 H106       30.3767   27.9285   -3.1350 H         1 UNK         0.0774 
    107 H107       31.5853   25.5651   -1.5912 H         1 UNK         0.0815 
    108 H108       30.3191   25.4594   -2.8174 H         1 UNK         0.0815 
    109 H109       31.9347   25.9785   -3.2629 H         1 UNK         0.0815 
    110 H110       31.4536   28.4252    0.0833 H         1 UNK         0.2987 
    111 H111       33.5609   30.2430   -0.7993 H         1 UNK         0.0949 
    112 H112       34.8468   28.1972   -0.1251 H         1 UNK         0.0806 
    113 H113       35.0655   29.4576    1.0765 H         1 UNK         0.0806 
    114 H114       33.9724   28.1197    1.3999 H         1 UNK         0.0806 
    115 H115       34.0765   31.6868    1.1576 H         1 UNK         0.3010 
    116 H116       31.6431   32.7996    2.1947 H         1 UNK         0.0829 
    117 H117       34.5810   33.3673    2.9044 H         1 UNK         0.0813 
    118 H118       33.2142   34.3878    3.3308 H         1 UNK         0.0813 
    119 H119       33.6534   34.1825    1.6450 H         1 UNK         0.0813 
    120 H120       30.9401   32.9574    4.3404 H         1 UNK         0.3038 
    121 H121       30.9551   30.6138    5.8693 H         1 UNK         0.0769 
    122 H122       29.0744   32.2269    5.7962 H         1 UNK         0.0811 
    123 H123       30.0482   33.4411    6.6290 H         1 UNK         0.0811 
    124 H124       29.5743   31.9642    7.4557 H         1 UNK         0.0811 
    125 H125       33.4698   32.8022    5.8582 H         1 UNK         0.3204 
    126 H126       34.4002   32.5381    8.6029 H         1 UNK         0.0748 
    127 H127       35.8437   33.3869    6.0293 H         1 UNK         0.0771 
    128 H128       35.0617   34.4755    7.1770 H         1 UNK         0.0771 
    129 H129       36.4758   33.5568    7.6611 H         1 UNK         0.0771 
    130 H130       34.2108   30.3369    5.9839 H         1 UNK         0.2980 
    131 H131       36.5366   28.8614    6.1139 H         1 UNK         0.0545 
    132 H132       36.5299   26.3742    8.6617 H         1 UNK         0.3459 
    133 H133       37.1423   26.7874    7.0820 H         1 UNK         0.3459 
    134 H134       35.2082   26.9998    5.1295 H         1 UNK         0.0616 
    135 H135       34.8877   28.5286    4.3663 H         1 UNK         0.0616 
    136 H136       32.6141   28.5381    3.3486 H         1 UNK         0.0634 
    137 H137       32.8708   26.8098    3.3790 H         1 UNK         0.0634 
@<TRIPOS>BOND
     1    1    2 1    
     2    1   72 1    
     3    1   73 1    
     4    1   74 1    
     5    2    3 2    
     6    2    4 am   BACKBONE|DICT|INTERRES
     7    4    5 1    
     8    4   75 1    
     9    5    6 1    
    10    5   35 1    
    11    5   76 1    
    12    6    7 1    
    13    6   77 1    
    14    6   78 1    
    15    7    8 1    
    16    8    9 1    
    17    8   79 1    
    18    8   80 1    
    19    9   10 ar   
    20    9   14 ar   
    21   10   11 ar   
    22   10   81 1    
    23   11   12 ar   
    24   11   71 1    
    25   12   13 ar   
    26   12   82 1    
    27   13   14 ar   
    28   13   15 1    
    29   14   83 1    
    30   15   16 1    
    31   15   84 1    
    32   15   85 1    
    33   16   17 1    
    34   17   18 1    
    35   17   86 1    
    36   17   87 1    
    37   18   19 1    
    38   18   37 1    
    39   18   88 1    
    40   19   20 am   BACKBONE|DICT|INTERRES
    41   19   89 1    
    42   20   21 2    
    43   20   22 1    
    44   22   23 1    
    45   22   24 1    
    46   22   90 1    
    47   23   91 1    
    48   23   92 1    
    49   23   93 1    
    50   24   25 am   BACKBONE|DICT|INTERRES
    51   24   94 1    
    52   25   26 2    
    53   25   27 1    
    54   27   28 1    
    55   27   29 1    
    56   27   95 1    
    57   28   96 1    
    58   28   97 1    
    59   28   98 1    
    60   29   30 am   BACKBONE|DICT|INTERRES
    61   29   99 1    
    62   30   31 2    
    63   30   32 1    
    64   32   33 1    
    65   32   34 1    
    66   32  100 1    
    67   33  101 1    
    68   33  102 1    
    69   33  103 1    
    70   34   35 am   BACKBONE|DICT|INTERRES
    71   34  104 1    
    72   35   36 2    
    73   37   38 2    
    74   37   39 am   BACKBONE|DICT|INTERRES
    75   39   40 1    
    76   39  105 1    
    77   40   41 1    
    78   40   42 1    
    79   40  106 1    
    80   41  107 1    
    81   41  108 1    
    82   41  109 1    
    83   42   43 2    
    84   42   44 am   BACKBONE|DICT|INTERRES
    85   44   45 1    
    86   44  110 1    
    87   45   46 1    
    88   45   47 1    
    89   45  111 1    
    90   46  112 1    
    91   46  113 1    
    92   46  114 1    
    93   47   48 2    
    94   47   49 am   BACKBONE|DICT|INTERRES
    95   49   50 1    
    96   49  115 1    
    97   50   51 1    
    98   50   52 1    
    99   50  116 1    
   100   51  117 1    
   101   51  118 1    
   102   51  119 1    
   103   52   53 2    
   104   52   54 am   BACKBONE|DICT|INTERRES
   105   54   55 1    
   106   54  120 1    
   107   55   56 1    
   108   55   57 1    
   109   55  121 1    
   110   56  122 1    
   111   56  123 1    
   112   56  124 1    
   113   57   58 2    
   114   57   59 am   BACKBONE|DICT|INTERRES
   115   59   60 1    
   116   59  125 1    
   117   60   61 1    
   118   60   62 1    
   119   60  126 1    
   120   61  127 1    
   121   61  128 1    
   122   61  129 1    
   123   62   63 2    
   124   62   64 am   BACKBONE|DICT|INTERRES
   125   64   65 1    
   126   64  130 1    
   127   65   66 1    
   128   65   69 1    
   129   65  131 1    
   130   66   67 am   BACKBONE|DICT|INTERRES
   131   66   68 2    
   132   67  132 1    
   133   67  133 1    
   134   69   70 1    
   135   69  134 1    
   136   69  135 1    
   137   70   71 1    
   138   71  136 1    
   139   71  137 1    
@<TRIPOS>SUBSTRUCTURE
     1 UNK         1 GROUP             0       ****    0 ROOT    
