@<TRIPOS>MOLECULE
3R136
137   139    1
SMALL
USER_CHARGES


@<TRIPOS>ATOM
      1 CA         25.7854   20.3131   -0.3488 C.3       0 UNK        -0.1979 
      2 C          26.8727   21.3721   -0.2372 C.2       0 UNK         0.4864 
      3 O          26.5857   22.4834    0.2081 O.2       0 UNK        -0.5359 
      4 N          28.1074   21.0191   -0.6305 N.am      1 UNK        -0.4318 
      5 CA         29.3153   21.8570   -0.6736 C.3       1 UNK         0.0824 
      6 C6         29.6029   22.5794    0.6730 C.3       12 UNK        -0.0944 
      7 S7         31.3269   23.1543    0.8573 S.3       12 UNK        -0.2672 
      8 C8         31.6586   22.8050    2.6151 C.3       12 UNK         0.0333 
      9 C9         30.8251   23.6807    3.5419 C.ar      12 UNK        -0.0807 
     10 C10        31.2760   24.9513    3.9133 C.ar      12 UNK        -0.0894 
     11 C11        30.5158   25.7525    4.7724 C.ar      12 UNK        -0.0804 
     12 C12        29.3005   25.2710    5.2694 C.ar      12 UNK        -0.0824 
     13 C13        28.8200   24.0196    4.8696 C.ar      12 UNK        -0.0762 
     14 C14        29.5984   23.2206    4.0287 C.ar      12 UNK        -0.0782 
     15 C15        27.4418   23.5382    5.2997 C.3       12 UNK         0.0230 
     16 S16        26.2370   23.6856    3.9343 S.3       12 UNK        -0.2608 
     17 C17        25.8261   25.4643    3.9748 C.3       12 UNK        -0.0989 
     18 CA         26.7767   26.3352    3.1075 C.3       5 UNK         0.0716 
     19 N          26.7949   25.9828    1.6885 N.am      5 UNK        -0.4135 
     20 C          25.8632   26.2289    0.7597 C.2       4 UNK         0.5031 
     21 O          24.7488   26.6929    1.0077 O.2       4 UNK        -0.5229 
     22 CA         26.2873   25.9511   -0.7025 C.3       4 UNK         0.0329 
     23 CB         25.5258   26.8325   -1.7145 C.3       4 UNK        -0.2001 
     24 N          27.7423   26.0558   -0.9210 N.am      4 UNK        -0.4303 
     25 C          28.5201   27.1221   -0.6567 C.2       3 UNK         0.5044 
     26 O          28.0806   28.1934   -0.2438 O.2       3 UNK        -0.5152 
     27 CA         30.0472   26.9626   -0.7661 C.3       3 UNK         0.0319 
     28 CB         30.6546   26.8850    0.6463 C.3       3 UNK        -0.2001 
     29 N          30.4673   25.7788   -1.5122 N.am      3 UNK        -0.4354 
     30 C          30.3739   25.6194   -2.8403 C.2       2 UNK         0.4964 
     31 O          30.0170   26.5058   -3.6161 O.2       2 UNK        -0.5047 
     32 CA         30.6995   24.2148   -3.3868 C.3       2 UNK         0.0288 
     33 CB         32.1512   24.1538   -3.8886 C.3       2 UNK        -0.2113 
     34 N          30.4832   23.1512   -2.3967 N.am      2 UNK        -0.4145 
     35 C          29.2926   22.8443   -1.8602 C.2       1 UNK         0.5006 
     36 O          28.2381   23.3655   -2.2299 O.2       1 UNK        -0.5103 
     37 C          26.6475   27.8511    3.3895 C.2       5 UNK         0.5055 
     38 O          26.1412   28.2262    4.4494 O.2       5 UNK        -0.5220 
     39 N          27.1423   28.7092    2.4830 N.am      6 UNK        -0.4450 
     40 CA         27.2970   30.1419    2.7345 C.3       6 UNK         0.0367 
     41 CB         27.4916   30.8922    1.4074 C.3       6 UNK        -0.1929 
     42 C          28.4906   30.3789    3.6719 C.2       6 UNK         0.5070 
     43 O          29.6150   29.9999    3.3365 O.2       6 UNK        -0.5237 
     44 N          28.2364   31.0224    4.8180 N.am      7 UNK        -0.4739 
     45 CA         29.2466   31.3287    5.8383 C.3       7 UNK         0.0276 
     46 CB         28.5495   31.8626    7.0996 C.3       7 UNK        -0.1927 
     47 C          30.3307   32.3141    5.3636 C.2       7 UNK         0.5013 
     48 O          31.4462   32.2801    5.8800 O.2       7 UNK        -0.5193 
     49 N          29.9836   33.1601    4.3849 N.am      8 UNK        -0.4253 
     50 CA         30.8738   34.1375    3.7572 C.3       8 UNK         0.0242 
     51 CB         30.0164   35.2718    3.1687 C.3       8 UNK        -0.2000 
     52 C          31.7942   33.5392    2.6744 C.2       8 UNK         0.4948 
     53 O          32.6719   34.2581    2.1933 O.2       8 UNK        -0.5275 
     54 N          31.5732   32.2747    2.2822 N.am      9 UNK        -0.4246 
     55 CA         32.3625   31.5649    1.2742 C.3       9 UNK         0.0261 
     56 CB         31.4268   30.6690    0.4368 C.3       9 UNK        -0.1959 
     57 C          33.5338   30.8203    1.9436 C.2       9 UNK         0.5033 
     58 O          34.3537   31.4587    2.6059 O.2       9 UNK        -0.5390 
     59 N          33.6116   29.4928    1.7646 N.am      10 UNK        -0.4215 
     60 CA         34.7077   28.6268    2.2255 C.3       10 UNK         0.0240 
     61 CB         34.4516   27.1883    1.7468 C.3       10 UNK        -0.1982 
     62 C          34.9633   28.6420    3.7449 C.2       10 UNK         0.4970 
     63 O          36.0894   28.3736    4.1653 O.2       10 UNK        -0.4916 
     64 N          33.9286   28.9614    4.5296 N.am      11 UNK        -0.4279 
     65 CA         34.0049   29.1545    5.9843 C.3       11 UNK         0.1003 
     66 C          34.5696   30.5428    6.4117 C.2       11 UNK         0.5709 
     67 N          34.8440   31.4740    5.5046 N.am      11 UNK        -0.7358 
     68 O          34.7916   30.7706    7.5988 O.2       11 UNK        -0.4999 
     69 C69        32.6427   28.8521    6.6610 C.3       12 UNK        -0.0954 
     70 S70        32.1735   27.0956    6.5156 S.3       12 UNK        -0.2268 
     71 C71        30.9928   27.1497    5.1359 C.3       12 UNK         0.0203 
     72 H72        24.9958   20.6573   -1.0162 H         1 UNK         0.0888 
     73 H73        26.1698   19.3696   -0.7360 H         1 UNK         0.0888 
     74 H74        25.3459   20.1239    0.6302 H         1 UNK         0.0888 
     75 H75        28.2374   20.0865   -0.9977 H         1 UNK         0.3017 
     76 H76        30.1297   21.1536   -0.8556 H         1 UNK         0.0873 
     77 H77        28.9359   23.4299    0.8246 H         1 UNK         0.0745 
     78 H78        29.3906   21.8849    1.4853 H         1 UNK         0.0745 
     79 H79        32.7190   22.9715    2.8104 H         1 UNK         0.0705 
     80 H80        31.4765   21.7485    2.8187 H         1 UNK         0.0705 
     81 H81        32.2187   25.3175    3.5321 H         1 UNK         0.1334 
     82 H82        28.7039   25.8926    5.9233 H         1 UNK         0.1417 
     83 H83        29.2304   22.2474    3.7351 H         1 UNK         0.1562 
     84 H84        27.0880   24.0851    6.1749 H         1 UNK         0.0748 
     85 H85        27.5046   22.4915    5.6009 H         1 UNK         0.0748 
     86 H86        25.8388   25.7824    5.0187 H         1 UNK         0.0940 
     87 H87        24.7956   25.5894    3.6387 H         1 UNK         0.0940 
     88 H88        27.7932   26.1211    3.4173 H         1 UNK         0.0703 
     89 H89        27.6516   25.5588    1.3674 H         1 UNK         0.3081 
     90 H90        26.0234   24.9119   -0.9034 H         1 UNK         0.0719 
     91 H91        25.6950   27.8944   -1.5330 H         1 UNK         0.0809 
     92 H92        25.8307   26.6135   -2.7378 H         1 UNK         0.0809 
     93 H93        24.4507   26.6594   -1.6539 H         1 UNK         0.0809 
     94 H94        28.1757   25.2131   -1.2829 H         1 UNK         0.2990 
     95 H95        30.4370   27.8504   -1.2683 H         1 UNK         0.0690 
     96 H96        31.7423   26.8701    0.6041 H         1 UNK         0.0788 
     97 H97        30.3291   25.9904    1.1781 H         1 UNK         0.0788 
     98 H98        30.3598   27.7374    1.2587 H         1 UNK         0.0788 
     99 H99        30.7984   24.9978   -0.9627 H         1 UNK         0.2993 
    100 H100       30.0319   24.0303   -4.2315 H         1 UNK         0.0949 
    101 H101       32.8658   24.3156   -3.0803 H         1 UNK         0.0767 
    102 H102       32.3729   23.1895   -4.3464 H         1 UNK         0.0767 
    103 H103       32.3349   24.9190   -4.6443 H         1 UNK         0.0767 
    104 H104       31.3103   22.6962   -2.0356 H         1 UNK         0.3013 
    105 H105       27.5338   28.3644    1.6106 H         1 UNK         0.3121 
    106 H106       26.3840   30.5176    3.2018 H         1 UNK         0.0774 
    107 H107       27.5555   31.9684    1.5718 H         1 UNK         0.0815 
    108 H108       28.4066   30.5864    0.8998 H         1 UNK         0.0815 
    109 H109       26.6594   30.7148    0.7261 H         1 UNK         0.0815 
    110 H110       27.2838   31.2865    5.0285 H         1 UNK         0.2987 
    111 H111       29.7456   30.3935    6.0970 H         1 UNK         0.0949 
    112 H112       27.8416   31.1366    7.5000 H         1 UNK         0.0806 
    113 H113       29.2753   32.0717    7.8870 H         1 UNK         0.0806 
    114 H114       28.0079   32.7885    6.9018 H         1 UNK         0.0806 
    115 H115       29.0390   33.1112    4.0322 H         1 UNK         0.3010 
    116 H116       31.5206   34.5640    4.5272 H         1 UNK         0.0829 
    117 H117       29.4045   35.7467    3.9359 H         1 UNK         0.0813 
    118 H118       30.6431   36.0505    2.7315 H         1 UNK         0.0813 
    119 H119       29.3519   34.9102    2.3830 H         1 UNK         0.0813 
    120 H120       30.8618   31.7316    2.7568 H         1 UNK         0.3038 
    121 H121       32.8113   32.2861    0.5880 H         1 UNK         0.0769 
    122 H122       31.9701   30.1373   -0.3455 H         1 UNK         0.0811 
    123 H123       30.6668   31.2683   -0.0648 H         1 UNK         0.0811 
    124 H124       30.9061   29.9357    1.0497 H         1 UNK         0.0811 
    125 H125       32.8940   29.0519    1.2093 H         1 UNK         0.3204 
    126 H126       35.6209   28.9867    1.7471 H         1 UNK         0.0748 
    127 H127       35.2769   26.5315    2.0259 H         1 UNK         0.0771 
    128 H128       33.5456   26.7735    2.1883 H         1 UNK         0.0771 
    129 H129       34.3554   27.1379    0.6619 H         1 UNK         0.0771 
    130 H130       33.0498   29.1965    4.0958 H         1 UNK         0.2980 
    131 H131       34.7219   28.4304    6.3760 H         1 UNK         0.0545 
    132 H132       35.2111   32.3593    5.8129 H         1 UNK         0.3459 
    133 H133       34.6639   31.3241    4.5165 H         1 UNK         0.3459 
    134 H134       31.8595   29.4845    6.2439 H         1 UNK         0.0616 
    135 H135       32.6813   29.0804    7.7276 H         1 UNK         0.0616 
    136 H136       30.1467   27.7841    5.4059 H         1 UNK         0.0634 
    137 H137       31.4587   27.6142    4.2661 H         1 UNK         0.0634 
@<TRIPOS>BOND
     1    1    2 1    
     2    1   72 1    
     3    1   73 1    
     4    1   74 1    
     5    2    3 2    
     6    2    4 am   BACKBONE|DICT|INTERRES
     7    4    5 1    
     8    4   75 1    
     9    5    6 1    
    10    5   35 1    
    11    5   76 1    
    12    6    7 1    
    13    6   77 1    
    14    6   78 1    
    15    7    8 1    
    16    8    9 1    
    17    8   79 1    
    18    8   80 1    
    19    9   10 ar   
    20    9   14 ar   
    21   10   11 ar   
    22   10   81 1    
    23   11   12 ar   
    24   11   71 1    
    25   12   13 ar   
    26   12   82 1    
    27   13   14 ar   
    28   13   15 1    
    29   14   83 1    
    30   15   16 1    
    31   15   84 1    
    32   15   85 1    
    33   16   17 1    
    34   17   18 1    
    35   17   86 1    
    36   17   87 1    
    37   18   19 1    
    38   18   37 1    
    39   18   88 1    
    40   19   20 am   BACKBONE|DICT|INTERRES
    41   19   89 1    
    42   20   21 2    
    43   20   22 1    
    44   22   23 1    
    45   22   24 1    
    46   22   90 1    
    47   23   91 1    
    48   23   92 1    
    49   23   93 1    
    50   24   25 am   BACKBONE|DICT|INTERRES
    51   24   94 1    
    52   25   26 2    
    53   25   27 1    
    54   27   28 1    
    55   27   29 1    
    56   27   95 1    
    57   28   96 1    
    58   28   97 1    
    59   28   98 1    
    60   29   30 am   BACKBONE|DICT|INTERRES
    61   29   99 1    
    62   30   31 2    
    63   30   32 1    
    64   32   33 1    
    65   32   34 1    
    66   32  100 1    
    67   33  101 1    
    68   33  102 1    
    69   33  103 1    
    70   34   35 am   BACKBONE|DICT|INTERRES
    71   34  104 1    
    72   35   36 2    
    73   37   38 2    
    74   37   39 am   BACKBONE|DICT|INTERRES
    75   39   40 1    
    76   39  105 1    
    77   40   41 1    
    78   40   42 1    
    79   40  106 1    
    80   41  107 1    
    81   41  108 1    
    82   41  109 1    
    83   42   43 2    
    84   42   44 am   BACKBONE|DICT|INTERRES
    85   44   45 1    
    86   44  110 1    
    87   45   46 1    
    88   45   47 1    
    89   45  111 1    
    90   46  112 1    
    91   46  113 1    
    92   46  114 1    
    93   47   48 2    
    94   47   49 am   BACKBONE|DICT|INTERRES
    95   49   50 1    
    96   49  115 1    
    97   50   51 1    
    98   50   52 1    
    99   50  116 1    
   100   51  117 1    
   101   51  118 1    
   102   51  119 1    
   103   52   53 2    
   104   52   54 am   BACKBONE|DICT|INTERRES
   105   54   55 1    
   106   54  120 1    
   107   55   56 1    
   108   55   57 1    
   109   55  121 1    
   110   56  122 1    
   111   56  123 1    
   112   56  124 1    
   113   57   58 2    
   114   57   59 am   BACKBONE|DICT|INTERRES
   115   59   60 1    
   116   59  125 1    
   117   60   61 1    
   118   60   62 1    
   119   60  126 1    
   120   61  127 1    
   121   61  128 1    
   122   61  129 1    
   123   62   63 2    
   124   62   64 am   BACKBONE|DICT|INTERRES
   125   64   65 1    
   126   64  130 1    
   127   65   66 1    
   128   65   69 1    
   129   65  131 1    
   130   66   67 am   BACKBONE|DICT|INTERRES
   131   66   68 2    
   132   67  132 1    
   133   67  133 1    
   134   69   70 1    
   135   69  134 1    
   136   69  135 1    
   137   70   71 1    
   138   71  136 1    
   139   71  137 1    
@<TRIPOS>SUBSTRUCTURE
     1 UNK         1 GROUP             0       ****    0 ROOT    
