@<TRIPOS>MOLECULE
3R136
137   139    1
SMALL
USER_CHARGES


@<TRIPOS>ATOM
      1 CA         32.2545   29.8451   -3.9370 C.3       0 UNK        -0.1979 
      2 C          31.6796   29.2195   -2.6754 C.2       0 UNK         0.4864 
      3 O          32.0042   29.6687   -1.5744 O.2       0 UNK        -0.5359 
      4 N          30.8306   28.1962   -2.8296 N.am      1 UNK        -0.4318 
      5 CA         30.1527   27.4909   -1.7448 C.3       1 UNK         0.0824 
      6 C6         30.9830   26.2924   -1.2222 C.3       12 UNK        -0.0944 
      7 S7         30.3817   25.7016    0.3920 S.3       12 UNK        -0.2672 
      8 C8         31.7743   24.6697    0.9256 C.3       12 UNK         0.0333 
      9 C9         31.6301   24.3110    2.3942 C.ar      12 UNK        -0.0807 
     10 C10        32.3407   25.0264    3.3623 C.ar      12 UNK        -0.0894 
     11 C11        32.2074   24.7095    4.7167 C.ar      12 UNK        -0.0804 
     12 C12        31.3482   23.6744    5.0986 C.ar      12 UNK        -0.0824 
     13 C13        30.6196   22.9616    4.1404 C.ar      12 UNK        -0.0762 
     14 C14        30.7761   23.2756    2.7869 C.ar      12 UNK        -0.0782 
     15 C15        29.6648   21.8551    4.5750 C.3       12 UNK         0.0230 
     16 S16        27.9248   22.1914    4.1337 S.3       12 UNK        -0.2608 
     17 C17        27.6438   23.8488    4.8480 C.3       12 UNK        -0.0989 
     18 CA         27.3595   24.8945    3.7330 C.3       5 UNK         0.0716 
     19 N          26.0997   24.6824    3.0074 N.am      5 UNK        -0.4135 
     20 C          24.8598   24.6927    3.5246 C.2       4 UNK         0.5031 
     21 O          24.6215   24.8197    4.7264 O.2       4 UNK        -0.5229 
     22 CA         23.6629   24.5722    2.5553 C.3       4 UNK         0.0329 
     23 CB         22.8054   25.8494    2.6002 C.3       4 UNK        -0.2001 
     24 N          24.0412   24.3200    1.1642 N.am      4 UNK        -0.4303 
     25 C          24.5073   23.1625    0.6771 C.2       3 UNK         0.5044 
     26 O          24.5645   22.1206    1.3301 O.2       3 UNK        -0.5152 
     27 CA         25.0266   23.1733   -0.7759 C.3       3 UNK         0.0319 
     28 CB         24.0203   22.4800   -1.7091 C.3       3 UNK        -0.2001 
     29 N          25.3426   24.5046   -1.3179 N.am      3 UNK        -0.4354 
     30 C          26.2443   25.3605   -0.8153 C.2       2 UNK         0.4964 
     31 O          26.8736   25.1583    0.2267 O.2       2 UNK        -0.5047 
     32 CA         26.4006   26.6955   -1.5556 C.3       2 UNK         0.0288 
     33 CB         25.4071   27.7266   -0.9938 C.3       2 UNK        -0.2113 
     34 N          27.7572   27.2002   -1.3662 N.am      2 UNK        -0.4145 
     35 C          28.7618   27.0631   -2.2378 C.2       1 UNK         0.5006 
     36 O          28.6356   26.6103   -3.3796 O.2       1 UNK        -0.5103 
     37 C          27.4641   26.3585    4.2040 C.2       5 UNK         0.5055 
     38 O          27.7121   26.6302    5.3801 O.2       5 UNK        -0.5220 
     39 N          27.2681   27.2723    3.2483 N.am      6 UNK        -0.4450 
     40 CA         27.5380   28.7006    3.3526 C.3       6 UNK         0.0367 
     41 CB         26.2188   29.4840    3.2650 C.3       6 UNK        -0.1929 
     42 C          28.4542   29.0262    2.1713 C.2       6 UNK         0.5070 
     43 O          28.2188   28.5006    1.0794 O.2       6 UNK        -0.5237 
     44 N          29.4916   29.8361    2.3978 N.am      7 UNK        -0.4739 
     45 CA         30.5854   30.0079    1.4435 C.3       7 UNK         0.0276 
     46 CB         31.6807   28.9684    1.7682 C.3       7 UNK        -0.1927 
     47 C          31.1651   31.4233    1.4566 C.2       7 UNK         0.5013 
     48 O          30.8627   32.2213    2.3465 O.2       7 UNK        -0.5193 
     49 N          32.0433   31.6726    0.4785 N.am      8 UNK        -0.4253 
     50 CA         32.9707   32.8066    0.4512 C.3       8 UNK         0.0242 
     51 CB         33.2900   33.1432   -1.0155 C.3       8 UNK        -0.2000 
     52 C          34.2691   32.5186    1.2367 C.2       8 UNK         0.4948 
     53 O          35.0507   33.4439    1.4623 O.2       8 UNK        -0.5275 
     54 N          34.4871   31.2487    1.6106 N.am      9 UNK        -0.4246 
     55 CA         35.6247   30.7478    2.3849 C.3       9 UNK         0.0261 
     56 CB         35.9271   29.3061    1.9235 C.3       9 UNK        -0.1959 
     57 C          35.3623   30.8625    3.9026 C.2       9 UNK         0.5033 
     58 O          34.7028   31.8064    4.3408 O.2       9 UNK        -0.5390 
     59 N          35.8700   29.9021    4.6909 N.am      10 UNK        -0.4215 
     60 CA         35.7502   29.8465    6.1560 C.3       10 UNK         0.0240 
     61 CB         36.5410   28.6391    6.6862 C.3       10 UNK        -0.1982 
     62 C          34.3006   29.8073    6.6772 C.2       10 UNK         0.4970 
     63 O          34.0229   30.3860    7.7282 O.2       10 UNK        -0.4916 
     64 N          33.4117   29.1528    5.9212 N.am      11 UNK        -0.4279 
     65 CA         31.9557   29.1454    6.1396 C.3       11 UNK         0.1003 
     66 C          31.2242   30.3192    5.4233 C.2       11 UNK         0.5709 
     67 N          31.9155   31.3023    4.8641 N.am      11 UNK        -0.7358 
     68 O          29.9986   30.3365    5.3482 O.2       11 UNK        -0.4999 
     69 C69        31.3375   27.7688    5.7739 C.3       12 UNK        -0.0954 
     70 S70        31.9303   26.4403    6.8742 S.3       12 UNK        -0.2268 
     71 C71        33.0026   25.4728    5.7673 C.3       12 UNK         0.0203 
     72 H72        31.9928   30.9019   -3.9828 H         1 UNK         0.0888 
     73 H73        33.3409   29.7630   -3.9328 H         1 UNK         0.0888 
     74 H74        31.8803   29.3621   -4.8394 H         1 UNK         0.0888 
     75 H75        30.5608   27.8867   -3.7549 H         1 UNK         0.3017 
     76 H76        30.0038   28.1919   -0.9264 H         1 UNK         0.0873 
     77 H77        32.0231   26.5979   -1.0971 H         1 UNK         0.0745 
     78 H78        30.9895   25.4667   -1.9365 H         1 UNK         0.0745 
     79 H79        31.8122   23.7649    0.3171 H         1 UNK         0.0705 
     80 H80        32.7125   25.2005    0.7567 H         1 UNK         0.0705 
     81 H81        32.9980   25.8300    3.0595 H         1 UNK         0.1334 
     82 H82        31.2405   23.4350    6.1479 H         1 UNK         0.1417 
     83 H83        30.2136   22.7304    2.0408 H         1 UNK         0.1562 
     84 H84        29.7244   21.6936    5.6525 H         1 UNK         0.0748 
     85 H85        29.9712   20.9175    4.1093 H         1 UNK         0.0748 
     86 H86        28.5174   24.1380    5.4338 H         1 UNK         0.0940 
     87 H87        26.8231   23.7942    5.5635 H         1 UNK         0.0940 
     88 H88        28.1493   24.7877    2.9865 H         1 UNK         0.0703 
     89 H89        26.2010   24.6144    1.9992 H         1 UNK         0.3081 
     90 H90        23.0517   23.7358    2.9008 H         1 UNK         0.0719 
     91 H91        23.3687   26.7253    2.2752 H         1 UNK         0.0809 
     92 H92        21.9242   25.7599    1.9647 H         1 UNK         0.0809 
     93 H93        22.4508   26.0487    3.6125 H         1 UNK         0.0809 
     94 H94        24.0260   25.1148    0.5425 H         1 UNK         0.2990 
     95 H95        25.9526   22.5947   -0.7830 H         1 UNK         0.0690 
     96 H96        24.4176   22.3801   -2.7195 H         1 UNK         0.0788 
     97 H97        23.0803   23.0301   -1.7687 H         1 UNK         0.0788 
     98 H98        23.7871   21.4743   -1.3558 H         1 UNK         0.0788 
     99 H99        24.8478   24.7679   -2.1586 H         1 UNK         0.2993 
    100 H100       26.1979   26.5458   -2.6184 H         1 UNK         0.0949 
    101 H101       25.5142   28.6895   -1.4938 H         1 UNK         0.0767 
    102 H102       24.3760   27.4009   -1.1371 H         1 UNK         0.0767 
    103 H103       25.5551   27.8899    0.0749 H         1 UNK         0.0767 
    104 H104       27.9665   27.5597   -0.4341 H         1 UNK         0.3013 
    105 H105       27.1468   26.9512    2.2950 H         1 UNK         0.3121 
    106 H106       28.0458   28.9325    4.2904 H         1 UNK         0.0774 
    107 H107       26.3995   30.5568    3.3405 H         1 UNK         0.0815 
    108 H108       25.7019   29.3037    2.3214 H         1 UNK         0.0815 
    109 H109       25.5429   29.2090    4.0748 H         1 UNK         0.0815 
    110 H110       29.6092   30.2819    3.3030 H         1 UNK         0.2987 
    111 H111       30.2097   29.8519    0.4334 H         1 UNK         0.0949 
    112 H112       32.2116   29.2157    2.6877 H         1 UNK         0.0806 
    113 H113       31.2608   27.9722    1.8968 H         1 UNK         0.0806 
    114 H114       32.4170   28.8977    0.9677 H         1 UNK         0.0806 
    115 H115       32.1610   30.9694   -0.2515 H         1 UNK         0.3010 
    116 H116       32.4939   33.6755    0.9100 H         1 UNK         0.0829 
    117 H117       32.3859   33.3972   -1.5691 H         1 UNK         0.0813 
    118 H118       33.9626   33.9993   -1.0839 H         1 UNK         0.0813 
    119 H119       33.7707   32.3071   -1.5255 H         1 UNK         0.0813 
    120 H120       33.7712   30.5762    1.3865 H         1 UNK         0.3038 
    121 H121       36.4994   31.3637    2.1656 H         1 UNK         0.0769 
    122 H122       35.1291   28.6132    2.1948 H         1 UNK         0.0811 
    123 H123       36.8577   28.9326    2.3523 H         1 UNK         0.0811 
    124 H124       36.0470   29.2596    0.8407 H         1 UNK         0.0811 
    125 H125       36.4065   29.1652    4.2560 H         1 UNK         0.3204 
    126 H126       36.2096   30.7548    6.5519 H         1 UNK         0.0748 
    127 H127       36.4908   28.5874    7.7750 H         1 UNK         0.0771 
    128 H128       36.1508   27.6971    6.2981 H         1 UNK         0.0771 
    129 H129       37.5953   28.7041    6.4167 H         1 UNK         0.0771 
    130 H130       33.7342   28.7187    5.0711 H         1 UNK         0.2980 
    131 H131       31.7633   29.3084    7.2015 H         1 UNK         0.0545 
    132 H132       31.4156   31.9954    4.3229 H         1 UNK         0.3459 
    133 H133       32.9287   31.3436    4.8962 H         1 UNK         0.3459 
    134 H134       31.5353   27.5191    4.7306 H         1 UNK         0.0616 
    135 H135       30.2511   27.7915    5.8755 H         1 UNK         0.0616 
    136 H136       33.7347   26.1364    5.3048 H         1 UNK         0.0634 
    137 H137       33.5710   24.7607    6.3669 H         1 UNK         0.0634 
@<TRIPOS>BOND
     1    1    2 1    
     2    1   72 1    
     3    1   73 1    
     4    1   74 1    
     5    2    3 2    
     6    2    4 am   BACKBONE|DICT|INTERRES
     7    4    5 1    
     8    4   75 1    
     9    5    6 1    
    10    5   35 1    
    11    5   76 1    
    12    6    7 1    
    13    6   77 1    
    14    6   78 1    
    15    7    8 1    
    16    8    9 1    
    17    8   79 1    
    18    8   80 1    
    19    9   10 ar   
    20    9   14 ar   
    21   10   11 ar   
    22   10   81 1    
    23   11   12 ar   
    24   11   71 1    
    25   12   13 ar   
    26   12   82 1    
    27   13   14 ar   
    28   13   15 1    
    29   14   83 1    
    30   15   16 1    
    31   15   84 1    
    32   15   85 1    
    33   16   17 1    
    34   17   18 1    
    35   17   86 1    
    36   17   87 1    
    37   18   19 1    
    38   18   37 1    
    39   18   88 1    
    40   19   20 am   BACKBONE|DICT|INTERRES
    41   19   89 1    
    42   20   21 2    
    43   20   22 1    
    44   22   23 1    
    45   22   24 1    
    46   22   90 1    
    47   23   91 1    
    48   23   92 1    
    49   23   93 1    
    50   24   25 am   BACKBONE|DICT|INTERRES
    51   24   94 1    
    52   25   26 2    
    53   25   27 1    
    54   27   28 1    
    55   27   29 1    
    56   27   95 1    
    57   28   96 1    
    58   28   97 1    
    59   28   98 1    
    60   29   30 am   BACKBONE|DICT|INTERRES
    61   29   99 1    
    62   30   31 2    
    63   30   32 1    
    64   32   33 1    
    65   32   34 1    
    66   32  100 1    
    67   33  101 1    
    68   33  102 1    
    69   33  103 1    
    70   34   35 am   BACKBONE|DICT|INTERRES
    71   34  104 1    
    72   35   36 2    
    73   37   38 2    
    74   37   39 am   BACKBONE|DICT|INTERRES
    75   39   40 1    
    76   39  105 1    
    77   40   41 1    
    78   40   42 1    
    79   40  106 1    
    80   41  107 1    
    81   41  108 1    
    82   41  109 1    
    83   42   43 2    
    84   42   44 am   BACKBONE|DICT|INTERRES
    85   44   45 1    
    86   44  110 1    
    87   45   46 1    
    88   45   47 1    
    89   45  111 1    
    90   46  112 1    
    91   46  113 1    
    92   46  114 1    
    93   47   48 2    
    94   47   49 am   BACKBONE|DICT|INTERRES
    95   49   50 1    
    96   49  115 1    
    97   50   51 1    
    98   50   52 1    
    99   50  116 1    
   100   51  117 1    
   101   51  118 1    
   102   51  119 1    
   103   52   53 2    
   104   52   54 am   BACKBONE|DICT|INTERRES
   105   54   55 1    
   106   54  120 1    
   107   55   56 1    
   108   55   57 1    
   109   55  121 1    
   110   56  122 1    
   111   56  123 1    
   112   56  124 1    
   113   57   58 2    
   114   57   59 am   BACKBONE|DICT|INTERRES
   115   59   60 1    
   116   59  125 1    
   117   60   61 1    
   118   60   62 1    
   119   60  126 1    
   120   61  127 1    
   121   61  128 1    
   122   61  129 1    
   123   62   63 2    
   124   62   64 am   BACKBONE|DICT|INTERRES
   125   64   65 1    
   126   64  130 1    
   127   65   66 1    
   128   65   69 1    
   129   65  131 1    
   130   66   67 am   BACKBONE|DICT|INTERRES
   131   66   68 2    
   132   67  132 1    
   133   67  133 1    
   134   69   70 1    
   135   69  134 1    
   136   69  135 1    
   137   70   71 1    
   138   71  136 1    
   139   71  137 1    
@<TRIPOS>SUBSTRUCTURE
     1 UNK         1 GROUP             0       ****    0 ROOT    
