@<TRIPOS>MOLECULE
3R136
137   139    1
SMALL
USER_CHARGES


@<TRIPOS>ATOM
      1 CA         26.6423   24.3027   -0.3500 C.3       0 UNK        -0.1979 
      2 C          27.8308   24.3271    0.5962 C.2       0 UNK         0.4864 
      3 O          28.1807   25.3863    1.1224 O.2       0 UNK        -0.5359 
      4 N          28.4436   23.1605    0.8315 N.am      1 UNK        -0.4318 
      5 CA         29.6309   22.9683    1.6767 C.3       1 UNK         0.0824 
      6 C6         30.2255   21.5453    1.5228 C.3       12 UNK        -0.0944 
      7 S7         30.5470   21.0846   -0.2141 S.3       12 UNK        -0.2672 
      8 C8         32.3223   21.4495   -0.3740 C.3       12 UNK         0.0333 
      9 C9         32.5984   22.9457   -0.3454 C.ar      12 UNK        -0.0807 
     10 C10        33.1704   23.5378    0.7824 C.ar      12 UNK        -0.0894 
     11 C11        33.4453   24.9078    0.8053 C.ar      12 UNK        -0.0804 
     12 C12        33.1521   25.6859   -0.3233 C.ar      12 UNK        -0.0824 
     13 C13        32.5723   25.1064   -1.4647 C.ar      12 UNK        -0.0762 
     14 C14        32.3003   23.7347   -1.4591 C.ar      12 UNK        -0.0782 
     15 C15        32.2862   25.8867   -2.7538 C.3       12 UNK         0.0230 
     16 S16        32.1869   27.7020   -2.5858 S.3       12 UNK        -0.2608 
     17 C17        30.3912   28.0571   -2.6866 C.3       12 UNK        -0.0989 
     18 CA         29.4807   27.3278   -1.6527 C.3       5 UNK         0.0716 
     19 N          30.0511   27.2622   -0.3071 N.am      5 UNK        -0.4135 
     20 C          30.4157   28.2976    0.4555 C.2       4 UNK         0.5031 
     21 O          30.2926   29.4868    0.1470 O.2       4 UNK        -0.5229 
     22 CA         30.9809   27.8968    1.8219 C.3       4 UNK         0.0329 
     23 CB         31.9384   28.9470    2.4020 C.3       4 UNK        -0.2001 
     24 N          29.9541   27.5191    2.8011 N.am      4 UNK        -0.4303 
     25 C          28.8190   28.1695    3.0976 C.2       3 UNK         0.5044 
     26 O          28.4534   29.2130    2.5514 O.2       3 UNK        -0.5152 
     27 CA         27.9547   27.5560    4.2093 C.3       3 UNK         0.0319 
     28 CB         26.5153   28.1083    4.2311 C.3       3 UNK        -0.2001 
     29 N          27.9230   26.0947    4.1246 N.am      3 UNK        -0.4354 
     30 C          27.8593   25.2789    5.1889 C.2       2 UNK         0.4964 
     31 O          27.8866   25.6757    6.3546 O.2       2 UNK        -0.5047 
     32 CA         27.7140   23.7661    4.9351 C.3       2 UNK         0.0288 
     33 CB         26.2606   23.3219    5.1707 C.3       2 UNK        -0.2113 
     34 N          28.1205   23.3578    3.5910 N.am      2 UNK        -0.4145 
     35 C          29.3904   23.2857    3.1691 C.2       1 UNK         0.5006 
     36 O          30.3551   23.4642    3.9099 O.2       1 UNK        -0.5103 
     37 C          28.0407   27.8964   -1.6273 C.2       5 UNK         0.5055 
     38 O          27.5886   28.4495   -2.6313 O.2       5 UNK        -0.5220 
     39 N          27.3604   27.7597   -0.4742 N.am      6 UNK        -0.4450 
     40 CA         26.0660   28.3506   -0.1138 C.3       6 UNK         0.0367 
     41 CB         24.9182   27.6756   -0.8955 C.3       6 UNK        -0.1929 
     42 C          26.0572   29.8864   -0.2564 C.2       6 UNK         0.5070 
     43 O          25.0941   30.4447   -0.7871 O.2       6 UNK        -0.5237 
     44 N          27.1379   30.5449    0.1842 N.am      7 UNK        -0.4739 
     45 CA         27.3516   31.9731   -0.0393 C.3       7 UNK         0.0276 
     46 CB         27.9164   32.2105   -1.4543 C.3       7 UNK        -0.1927 
     47 C          28.2501   32.6044    1.0263 C.2       7 UNK         0.5013 
     48 O          27.8186   33.5484    1.6895 O.2       7 UNK        -0.5193 
     49 N          29.4935   32.1196    1.1440 N.am      8 UNK        -0.4253 
     50 CA         30.5446   32.7909    1.9167 C.3       8 UNK         0.0242 
     51 CB         31.9104   32.5112    1.2650 C.3       8 UNK        -0.2000 
     52 C          30.5451   32.4615    3.4199 C.2       8 UNK         0.4948 
     53 O          31.3226   33.0706    4.1554 O.2       8 UNK        -0.5275 
     54 N          29.7180   31.5006    3.8590 N.am      9 UNK        -0.4246 
     55 CA         29.5034   31.0215    5.2353 C.3       9 UNK         0.0261 
     56 CB         28.9844   32.1520    6.1447 C.3       9 UNK        -0.1959 
     57 C          30.6952   30.2964    5.8947 C.2       9 UNK         0.5033 
     58 O          30.4586   29.3705    6.6692 O.2       9 UNK        -0.5390 
     59 N          31.9261   30.7278    5.5889 N.am      10 UNK        -0.4215 
     60 CA         33.2089   30.4022    6.2265 C.3       10 UNK         0.0240 
     61 CB         34.3537   30.8374    5.2952 C.3       10 UNK        -0.1982 
     62 C          33.4181   28.9513    6.6984 C.2       10 UNK         0.4970 
     63 O          33.7364   28.7484    7.8711 O.2       10 UNK        -0.4916 
     64 N          33.2562   27.9814    5.7895 N.am      11 UNK        -0.4279 
     65 CA         33.4196   26.5464    6.0759 C.3       11 UNK         0.1003 
     66 C          32.1525   25.8505    6.6616 C.2       11 UNK         0.5709 
     67 N          31.0301   26.5381    6.8401 N.am      11 UNK        -0.7358 
     68 O          32.1987   24.6661    6.9853 O.2       11 UNK        -0.4999 
     69 C69        34.0570   25.7845    4.8780 C.3       12 UNK        -0.0954 
     70 S70        32.9421   25.5181    3.4608 S.3       12 UNK        -0.2268 
     71 C71        34.0892   25.5205    2.0460 C.3       12 UNK         0.0203 
     72 H72        25.7401   24.5994    0.1829 H         1 UNK         0.0888 
     73 H73        26.8020   24.9933   -1.1767 H         1 UNK         0.0888 
     74 H74        26.4758   23.3105   -0.7690 H         1 UNK         0.0888 
     75 H75        28.1207   22.3282    0.3579 H         1 UNK         0.3017 
     76 H76        30.3777   23.6873    1.3353 H         1 UNK         0.0873 
     77 H77        31.1522   21.4522    2.0928 H         1 UNK         0.0745 
     78 H78        29.5422   20.8022    1.9386 H         1 UNK         0.0745 
     79 H79        32.8749   20.9330    0.4125 H         1 UNK         0.0705 
     80 H80        32.6817   21.0362   -1.3176 H         1 UNK         0.0705 
     81 H81        33.4032   22.9337    1.6490 H         1 UNK         0.1334 
     82 H82        33.3925   26.7395   -0.3116 H         1 UNK         0.1417 
     83 H83        31.8672   23.2689   -2.3345 H         1 UNK         0.1562 
     84 H84        31.3696   25.5207   -3.2183 H         1 UNK         0.0748 
     85 H85        33.0884   25.6647   -3.4587 H         1 UNK         0.0748 
     86 H86        30.0557   27.8326   -3.7007 H         1 UNK         0.0940 
     87 H87        30.2849   29.1383   -2.5760 H         1 UNK         0.0940 
     88 H88        29.3794   26.2911   -1.9756 H         1 UNK         0.0703 
     89 H89        30.1263   26.3338    0.0855 H         1 UNK         0.3081 
     90 H90        31.5667   27.0017    1.6343 H         1 UNK         0.0719 
     91 H91        31.4104   29.8494    2.6891 H         1 UNK         0.0809 
     92 H92        32.4557   28.5671    3.2776 H         1 UNK         0.0809 
     93 H93        32.7026   29.2217    1.6741 H         1 UNK         0.0809 
     94 H94        30.1369   26.6621    3.3052 H         1 UNK         0.2990 
     95 H95        28.4411   27.8482    5.1423 H         1 UNK         0.0690 
     96 H96        25.9588   27.7257    5.0867 H         1 UNK         0.0788 
     97 H97        25.9685   27.8355    3.3289 H         1 UNK         0.0788 
     98 H98        26.5068   29.1965    4.3056 H         1 UNK         0.0788 
     99 H99        27.9209   25.7026    3.1877 H         1 UNK         0.2993 
    100 H100       28.3517   23.2537    5.6592 H         1 UNK         0.0949 
    101 H101       25.9321   23.5800    6.1786 H         1 UNK         0.0767 
    102 H102       25.5732   23.8005    4.4718 H         1 UNK         0.0767 
    103 H103       26.1528   22.2422    5.0640 H         1 UNK         0.0767 
    104 H104       27.3850   23.1835    2.9220 H         1 UNK         0.3013 
    105 H105       27.8147   27.2340    0.2657 H         1 UNK         0.3121 
    106 H106       25.9156   28.1418    0.9456 H         1 UNK         0.0774 
    107 H107       24.9950   27.8614   -1.9672 H         1 UNK         0.0815 
    108 H108       23.9484   28.0535   -0.5695 H         1 UNK         0.0815 
    109 H109       24.9057   26.5988   -0.7424 H         1 UNK         0.0815 
    110 H110       27.8620   30.0393    0.6871 H         1 UNK         0.2987 
    111 H111       26.3906   32.4884    0.0300 H         1 UNK         0.0949 
    112 H112       28.8371   31.6495   -1.6208 H         1 UNK         0.0806 
    113 H113       27.2030   31.9083   -2.2212 H         1 UNK         0.0806 
    114 H114       28.1386   33.2658   -1.6179 H         1 UNK         0.0806 
    115 H115       29.7646   31.2893    0.6202 H         1 UNK         0.3010 
    116 H116       30.3844   33.8698    1.8550 H         1 UNK         0.0829 
    117 H117       32.7286   32.9276    1.8543 H         1 UNK         0.0813 
    118 H118       32.0997   31.4470    1.1446 H         1 UNK         0.0813 
    119 H119       31.9674   32.9642    0.2751 H         1 UNK         0.0813 
    120 H120       29.1787   31.0009    3.1571 H         1 UNK         0.3038 
    121 H121       28.7009   30.2884    5.1639 H         1 UNK         0.0769 
    122 H122       29.7307   32.9324    6.2955 H         1 UNK         0.0811 
    123 H123       28.7178   31.7663    7.1297 H         1 UNK         0.0811 
    124 H124       28.0916   32.6175    5.7270 H         1 UNK         0.0811 
    125 H125       31.9423   31.5428    4.9789 H         1 UNK         0.3204 
    126 H126       33.2599   31.0267    7.1203 H         1 UNK         0.0748 
    127 H127       35.3268   30.6225    5.7394 H         1 UNK         0.0771 
    128 H128       34.3116   30.3237    4.3339 H         1 UNK         0.0771 
    129 H129       34.3194   31.9097    5.1004 H         1 UNK         0.0771 
    130 H130       32.9617   28.2206    4.8568 H         1 UNK         0.2980 
    131 H131       34.1549   26.4657    6.8787 H         1 UNK         0.0545 
    132 H132       30.2154   26.0653    7.1991 H         1 UNK         0.3459 
    133 H133       30.9855   27.5377    6.6656 H         1 UNK         0.3459 
    134 H134       34.9465   26.3164    4.5369 H         1 UNK         0.0616 
    135 H135       34.4079   24.8050    5.2072 H         1 UNK         0.0616 
    136 H136       34.9815   24.9478    2.3029 H         1 UNK         0.0634 
    137 H137       34.4169   26.5432    1.8536 H         1 UNK         0.0634 
@<TRIPOS>BOND
     1    1    2 1    
     2    1   72 1    
     3    1   73 1    
     4    1   74 1    
     5    2    3 2    
     6    2    4 am   BACKBONE|DICT|INTERRES
     7    4    5 1    
     8    4   75 1    
     9    5    6 1    
    10    5   35 1    
    11    5   76 1    
    12    6    7 1    
    13    6   77 1    
    14    6   78 1    
    15    7    8 1    
    16    8    9 1    
    17    8   79 1    
    18    8   80 1    
    19    9   10 ar   
    20    9   14 ar   
    21   10   11 ar   
    22   10   81 1    
    23   11   12 ar   
    24   11   71 1    
    25   12   13 ar   
    26   12   82 1    
    27   13   14 ar   
    28   13   15 1    
    29   14   83 1    
    30   15   16 1    
    31   15   84 1    
    32   15   85 1    
    33   16   17 1    
    34   17   18 1    
    35   17   86 1    
    36   17   87 1    
    37   18   19 1    
    38   18   37 1    
    39   18   88 1    
    40   19   20 am   BACKBONE|DICT|INTERRES
    41   19   89 1    
    42   20   21 2    
    43   20   22 1    
    44   22   23 1    
    45   22   24 1    
    46   22   90 1    
    47   23   91 1    
    48   23   92 1    
    49   23   93 1    
    50   24   25 am   BACKBONE|DICT|INTERRES
    51   24   94 1    
    52   25   26 2    
    53   25   27 1    
    54   27   28 1    
    55   27   29 1    
    56   27   95 1    
    57   28   96 1    
    58   28   97 1    
    59   28   98 1    
    60   29   30 am   BACKBONE|DICT|INTERRES
    61   29   99 1    
    62   30   31 2    
    63   30   32 1    
    64   32   33 1    
    65   32   34 1    
    66   32  100 1    
    67   33  101 1    
    68   33  102 1    
    69   33  103 1    
    70   34   35 am   BACKBONE|DICT|INTERRES
    71   34  104 1    
    72   35   36 2    
    73   37   38 2    
    74   37   39 am   BACKBONE|DICT|INTERRES
    75   39   40 1    
    76   39  105 1    
    77   40   41 1    
    78   40   42 1    
    79   40  106 1    
    80   41  107 1    
    81   41  108 1    
    82   41  109 1    
    83   42   43 2    
    84   42   44 am   BACKBONE|DICT|INTERRES
    85   44   45 1    
    86   44  110 1    
    87   45   46 1    
    88   45   47 1    
    89   45  111 1    
    90   46  112 1    
    91   46  113 1    
    92   46  114 1    
    93   47   48 2    
    94   47   49 am   BACKBONE|DICT|INTERRES
    95   49   50 1    
    96   49  115 1    
    97   50   51 1    
    98   50   52 1    
    99   50  116 1    
   100   51  117 1    
   101   51  118 1    
   102   51  119 1    
   103   52   53 2    
   104   52   54 am   BACKBONE|DICT|INTERRES
   105   54   55 1    
   106   54  120 1    
   107   55   56 1    
   108   55   57 1    
   109   55  121 1    
   110   56  122 1    
   111   56  123 1    
   112   56  124 1    
   113   57   58 2    
   114   57   59 am   BACKBONE|DICT|INTERRES
   115   59   60 1    
   116   59  125 1    
   117   60   61 1    
   118   60   62 1    
   119   60  126 1    
   120   61  127 1    
   121   61  128 1    
   122   61  129 1    
   123   62   63 2    
   124   62   64 am   BACKBONE|DICT|INTERRES
   125   64   65 1    
   126   64  130 1    
   127   65   66 1    
   128   65   69 1    
   129   65  131 1    
   130   66   67 am   BACKBONE|DICT|INTERRES
   131   66   68 2    
   132   67  132 1    
   133   67  133 1    
   134   69   70 1    
   135   69  134 1    
   136   69  135 1    
   137   70   71 1    
   138   71  136 1    
   139   71  137 1    
@<TRIPOS>SUBSTRUCTURE
     1 UNK         1 GROUP             0       ****    0 ROOT    
