@<TRIPOS>MOLECULE
3R136
137   139    1
SMALL
USER_CHARGES


@<TRIPOS>ATOM
      1 CA         26.0487   21.7265    0.5551 C.3       0 UNK        -0.1979 
      2 C          27.0076   22.5687    1.3823 C.2       0 UNK         0.4864 
      3 O          26.6787   22.9223    2.5162 O.2       0 UNK        -0.5359 
      4 N          28.1797   22.9007    0.8179 N.am      1 UNK        -0.4318 
      5 CA         29.2581   23.6908    1.4296 C.3       1 UNK         0.0824 
      6 C6         30.0416   22.8986    2.5179 C.3       12 UNK        -0.0944 
      7 S7         31.0090   21.5356    1.7819 S.3       12 UNK        -0.2672 
      8 C8         32.7070   22.2111    1.7978 C.3       12 UNK         0.0333 
      9 C9         32.7840   23.5796    1.1345 C.ar      12 UNK        -0.0807 
     10 C10        33.0393   24.7210    1.9011 C.ar      12 UNK        -0.0894 
     11 C11        33.0272   25.9882    1.3123 C.ar      12 UNK        -0.0804 
     12 C12        32.7565   26.1101   -0.0539 C.ar      12 UNK        -0.0824 
     13 C13        32.4927   24.9767   -0.8282 C.ar      12 UNK        -0.0762 
     14 C14        32.5397   23.7115   -0.2355 C.ar      12 UNK        -0.0782 
     15 C15        32.1007   25.1184   -2.2904 C.3       12 UNK         0.0230 
     16 S16        30.3417   24.6948   -2.5166 S.3       12 UNK        -0.2608 
     17 C17        29.7323   26.0470   -3.5862 C.3       12 UNK        -0.0989 
     18 CA         28.8529   27.0870   -2.8408 C.3       5 UNK         0.0716 
     19 N          27.7697   26.4316   -2.1005 N.am      5 UNK        -0.4135 
     20 C          26.6461   27.0042   -1.6524 C.2       4 UNK         0.5031 
     21 O          26.4330   28.2161   -1.6805 O.2       4 UNK        -0.5229 
     22 CA         25.5445   26.0613   -1.1448 C.3       4 UNK         0.0329 
     23 CB         25.6599   24.6155   -1.6740 C.3       4 UNK        -0.2001 
     24 N          25.5038   26.0475    0.3169 N.am      4 UNK        -0.4303 
     25 C          24.3722   26.0305    1.0378 C.2       3 UNK         0.5044 
     26 O          23.2504   26.0978    0.5319 O.2       3 UNK        -0.5152 
     27 CA         24.4700   25.8851    2.5698 C.3       3 UNK         0.0319 
     28 CB         23.6659   24.6647    3.0531 C.3       3 UNK        -0.2001 
     29 N          25.8444   25.7516    3.0522 N.am      3 UNK        -0.4354 
     30 C          26.6133   26.7693    3.4639 C.2       2 UNK         0.4964 
     31 O          26.2353   27.9397    3.5097 O.2       2 UNK        -0.5047 
     32 CA         28.0559   26.4334    3.8878 C.3       2 UNK         0.0288 
     33 CB         28.1333   26.2366    5.4104 C.3       2 UNK        -0.2113 
     34 N          28.6248   25.2559    3.2244 N.am      2 UNK        -0.4145 
     35 C          28.7303   25.0616    1.9002 C.2       1 UNK         0.5006 
     36 O          28.3798   25.8889    1.0538 O.2       1 UNK        -0.5103 
     37 C          29.7076   28.0832   -2.0272 C.2       5 UNK         0.5055 
     38 O          30.4722   28.8326   -2.6389 O.2       5 UNK        -0.5220 
     39 N          29.6008   28.0806   -0.6918 N.am      6 UNK        -0.4450 
     40 CA         30.3363   28.9856    0.1928 C.3       6 UNK         0.0367 
     41 CB         30.0824   28.5750    1.6468 C.3       6 UNK        -0.1929 
     42 C          29.9589   30.4645    0.0091 C.2       6 UNK         0.5070 
     43 O          28.7743   30.7897   -0.0886 O.2       6 UNK        -0.5237 
     44 N          30.9752   31.3370    0.0407 N.am      7 UNK        -0.4739 
     45 CA         30.8071   32.7928    0.1056 C.3       7 UNK         0.0276 
     46 CB         32.1080   33.4778   -0.3435 C.3       7 UNK        -0.1927 
     47 C          30.4058   33.2665    1.5149 C.2       7 UNK         0.5013 
     48 O          29.7019   34.2692    1.6402 O.2       7 UNK        -0.5193 
     49 N          30.8467   32.5293    2.5411 N.am      8 UNK        -0.4253 
     50 CA         30.4974   32.7048    3.9443 C.3       8 UNK         0.0242 
     51 CB         31.4161   33.7529    4.5968 C.3       8 UNK        -0.2000 
     52 C          30.6512   31.3418    4.6228 C.2       8 UNK         0.4948 
     53 O          31.5746   30.5976    4.2806 O.2       8 UNK        -0.5275 
     54 N          29.7709   31.0461    5.5879 N.am      9 UNK        -0.4246 
     55 CA         29.7101   29.7660    6.3065 C.3       9 UNK         0.0261 
     56 CB         28.4604   29.7447    7.2012 C.3       9 UNK        -0.1959 
     57 C          30.9671   29.4269    7.1293 C.2       9 UNK         0.5033 
     58 O          31.2016   28.2496    7.4028 O.2       9 UNK        -0.5390 
     59 N          31.7678   30.4459    7.4759 N.am      10 UNK        -0.4215 
     60 CA         33.0442   30.3383    8.1910 C.3       10 UNK         0.0240 
     61 CB         33.5926   31.7513    8.4499 C.3       10 UNK        -0.1982 
     62 C          34.1066   29.4716    7.4854 C.2       10 UNK         0.4970 
     63 O          34.9959   28.9556    8.1635 O.2       10 UNK        -0.4916 
     64 N          33.9948   29.3114    6.1588 N.am      11 UNK        -0.4279 
     65 CA         34.7918   28.3625    5.3652 C.3       11 UNK         0.1003 
     66 C          34.4447   26.8659    5.6602 C.2       11 UNK         0.5709 
     67 N          33.2761   26.5406    6.2036 N.am      11 UNK        -0.7358 
     68 O          35.2700   25.9842    5.4337 O.2       11 UNK        -0.4999 
     69 C69        34.7898   28.7877    3.8587 C.3       12 UNK        -0.0954 
     70 S70        34.9863   27.4959    2.5773 S.3       12 UNK        -0.2268 
     71 C71        33.2386   27.2234    2.1722 C.3       12 UNK         0.0203 
     72 H72        26.4339   21.5308   -0.4454 H         1 UNK         0.0888 
     73 H73        25.8748   20.7693    1.0457 H         1 UNK         0.0888 
     74 H74        25.0914   22.2376    0.4573 H         1 UNK         0.0888 
     75 H75        28.3783   22.5760   -0.1176 H         1 UNK         0.3017 
     76 H76        29.9489   23.9294    0.6215 H         1 UNK         0.0873 
     77 H77        29.3613   22.4729    3.2574 H         1 UNK         0.0745 
     78 H78        30.7240   23.5457    3.0712 H         1 UNK         0.0745 
     79 H79        33.0592   22.2596    2.8295 H         1 UNK         0.0705 
     80 H80        33.3710   21.5189    1.2784 H         1 UNK         0.0705 
     81 H81        33.2235   24.6302    2.9633 H         1 UNK         0.1334 
     82 H82        32.7258   27.0880   -0.5121 H         1 UNK         0.1417 
     83 H83        32.3194   22.8332   -0.8276 H         1 UNK         0.1562 
     84 H84        32.7136   24.4571   -2.9045 H         1 UNK         0.0748 
     85 H85        32.2973   26.1337   -2.6375 H         1 UNK         0.0748 
     86 H86        29.1367   25.5841   -4.3747 H         1 UNK         0.0940 
     87 H87        30.5612   26.5268   -4.1104 H         1 UNK         0.0940 
     88 H88        28.3697   27.6960   -3.6081 H         1 UNK         0.0703 
     89 H89        27.8737   25.4335   -1.9934 H         1 UNK         0.3081 
     90 H90        24.6128   26.4764   -1.5355 H         1 UNK         0.0719 
     91 H91        26.5401   24.1042   -1.2862 H         1 UNK         0.0809 
     92 H92        24.7862   24.0278   -1.3921 H         1 UNK         0.0809 
     93 H93        25.7150   24.5969   -2.7635 H         1 UNK         0.0809 
     94 H94        26.4032   26.0444    0.7889 H         1 UNK         0.2990 
     95 H95        24.0144   26.7771    3.0047 H         1 UNK         0.0690 
     96 H96        23.7104   24.5647    4.1377 H         1 UNK         0.0788 
     97 H97        24.0379   23.7374    2.6157 H         1 UNK         0.0788 
     98 H98        22.6131   24.7534    2.7818 H         1 UNK         0.0788 
     99 H99        26.2384   24.8144    3.0239 H         1 UNK         0.2993 
    100 H100       28.6772   27.2909    3.6364 H         1 UNK         0.0949 
    101 H101       29.1660   26.1402    5.7473 H         1 UNK         0.0767 
    102 H102       27.7023   27.0888    5.9372 H         1 UNK         0.0767 
    103 H103       27.5880   25.3479    5.7309 H         1 UNK         0.0767 
    104 H104       28.8900   24.4946    3.8317 H         1 UNK         0.3013 
    105 H105       28.9680   27.4218   -0.2511 H         1 UNK         0.3121 
    106 H106       31.3978   28.8715   -0.0267 H         1 UNK         0.0774 
    107 H107       30.6558   29.1921    2.3360 H         1 UNK         0.0815 
    108 H108       29.0287   28.6891    1.9035 H         1 UNK         0.0815 
    109 H109       30.3710   27.5406    1.8253 H         1 UNK         0.0815 
    110 H110       31.9213   30.9876    0.0978 H         1 UNK         0.2987 
    111 H111       30.0103   33.0858   -0.5822 H         1 UNK         0.0949 
    112 H112       32.9468   33.2233    0.3057 H         1 UNK         0.0806 
    113 H113       32.3733   33.1960   -1.3627 H         1 UNK         0.0806 
    114 H114       32.0014   34.5635   -0.3267 H         1 UNK         0.0806 
    115 H115       31.4039   31.7050    2.3578 H         1 UNK         0.3010 
    116 H116       29.4564   33.0271    4.0189 H         1 UNK         0.0829 
    117 H117       31.3175   34.7240    4.1113 H         1 UNK         0.0813 
    118 H118       31.1678   33.8918    5.6497 H         1 UNK         0.0813 
    119 H119       32.4650   33.4579    4.5428 H         1 UNK         0.0813 
    120 H120       29.0560   31.7227    5.8168 H         1 UNK         0.3038 
    121 H121       29.6047   28.9789    5.5569 H         1 UNK         0.0769 
    122 H122       28.4803   30.5442    7.9428 H         1 UNK         0.0811 
    123 H123       28.3830   28.8010    7.7432 H         1 UNK         0.0811 
    124 H124       27.5489   29.8518    6.6126 H         1 UNK         0.0811 
    125 H125       31.4836   31.3743    7.2010 H         1 UNK         0.3204 
    126 H126       32.8369   29.8680    9.1544 H         1 UNK         0.0748 
    127 H127       34.5304   31.7112    9.0062 H         1 UNK         0.0771 
    128 H128       33.7887   32.2849    7.5188 H         1 UNK         0.0771 
    129 H129       32.8955   32.3471    9.0396 H         1 UNK         0.0771 
    130 H130       33.2296   29.7642    5.6750 H         1 UNK         0.2980 
    131 H131       35.8251   28.4676    5.7021 H         1 UNK         0.0545 
    132 H132       32.6026   27.2465    6.4830 H         1 UNK         0.3459 
    133 H133       33.0885   25.5720    6.4040 H         1 UNK         0.3459 
    134 H134       33.8691   29.3250    3.6266 H         1 UNK         0.0616 
    135 H135       35.5804   29.5226    3.7006 H         1 UNK         0.0616 
    136 H136       32.6600   27.1242    3.0923 H         1 UNK         0.0634 
    137 H137       32.8675   28.1140    1.6667 H         1 UNK         0.0634 
@<TRIPOS>BOND
     1    1    2 1    
     2    1   72 1    
     3    1   73 1    
     4    1   74 1    
     5    2    3 2    
     6    2    4 am   BACKBONE|DICT|INTERRES
     7    4    5 1    
     8    4   75 1    
     9    5    6 1    
    10    5   35 1    
    11    5   76 1    
    12    6    7 1    
    13    6   77 1    
    14    6   78 1    
    15    7    8 1    
    16    8    9 1    
    17    8   79 1    
    18    8   80 1    
    19    9   10 ar   
    20    9   14 ar   
    21   10   11 ar   
    22   10   81 1    
    23   11   12 ar   
    24   11   71 1    
    25   12   13 ar   
    26   12   82 1    
    27   13   14 ar   
    28   13   15 1    
    29   14   83 1    
    30   15   16 1    
    31   15   84 1    
    32   15   85 1    
    33   16   17 1    
    34   17   18 1    
    35   17   86 1    
    36   17   87 1    
    37   18   19 1    
    38   18   37 1    
    39   18   88 1    
    40   19   20 am   BACKBONE|DICT|INTERRES
    41   19   89 1    
    42   20   21 2    
    43   20   22 1    
    44   22   23 1    
    45   22   24 1    
    46   22   90 1    
    47   23   91 1    
    48   23   92 1    
    49   23   93 1    
    50   24   25 am   BACKBONE|DICT|INTERRES
    51   24   94 1    
    52   25   26 2    
    53   25   27 1    
    54   27   28 1    
    55   27   29 1    
    56   27   95 1    
    57   28   96 1    
    58   28   97 1    
    59   28   98 1    
    60   29   30 am   BACKBONE|DICT|INTERRES
    61   29   99 1    
    62   30   31 2    
    63   30   32 1    
    64   32   33 1    
    65   32   34 1    
    66   32  100 1    
    67   33  101 1    
    68   33  102 1    
    69   33  103 1    
    70   34   35 am   BACKBONE|DICT|INTERRES
    71   34  104 1    
    72   35   36 2    
    73   37   38 2    
    74   37   39 am   BACKBONE|DICT|INTERRES
    75   39   40 1    
    76   39  105 1    
    77   40   41 1    
    78   40   42 1    
    79   40  106 1    
    80   41  107 1    
    81   41  108 1    
    82   41  109 1    
    83   42   43 2    
    84   42   44 am   BACKBONE|DICT|INTERRES
    85   44   45 1    
    86   44  110 1    
    87   45   46 1    
    88   45   47 1    
    89   45  111 1    
    90   46  112 1    
    91   46  113 1    
    92   46  114 1    
    93   47   48 2    
    94   47   49 am   BACKBONE|DICT|INTERRES
    95   49   50 1    
    96   49  115 1    
    97   50   51 1    
    98   50   52 1    
    99   50  116 1    
   100   51  117 1    
   101   51  118 1    
   102   51  119 1    
   103   52   53 2    
   104   52   54 am   BACKBONE|DICT|INTERRES
   105   54   55 1    
   106   54  120 1    
   107   55   56 1    
   108   55   57 1    
   109   55  121 1    
   110   56  122 1    
   111   56  123 1    
   112   56  124 1    
   113   57   58 2    
   114   57   59 am   BACKBONE|DICT|INTERRES
   115   59   60 1    
   116   59  125 1    
   117   60   61 1    
   118   60   62 1    
   119   60  126 1    
   120   61  127 1    
   121   61  128 1    
   122   61  129 1    
   123   62   63 2    
   124   62   64 am   BACKBONE|DICT|INTERRES
   125   64   65 1    
   126   64  130 1    
   127   65   66 1    
   128   65   69 1    
   129   65  131 1    
   130   66   67 am   BACKBONE|DICT|INTERRES
   131   66   68 2    
   132   67  132 1    
   133   67  133 1    
   134   69   70 1    
   135   69  134 1    
   136   69  135 1    
   137   70   71 1    
   138   71  136 1    
   139   71  137 1    
@<TRIPOS>SUBSTRUCTURE
     1 UNK         1 GROUP             0       ****    0 ROOT    
