@<TRIPOS>MOLECULE
3R136
137   139    1
SMALL
USER_CHARGES


@<TRIPOS>ATOM
      1 CA         30.1446   18.6930    2.8407 C.3       0 UNK        -0.1979 
      2 C          29.1753   19.8656    2.8129 C.2       0 UNK         0.4864 
      3 O          28.0108   19.6987    3.1777 O.2       0 UNK        -0.5359 
      4 N          29.6515   21.0412    2.3739 N.am      1 UNK        -0.4318 
      5 CA         28.9148   22.3151    2.2888 C.3       1 UNK         0.0824 
      6 C6         28.4628   22.8733    3.6713 C.3       12 UNK        -0.0944 
      7 S7         29.7715   22.8794    4.9469 S.3       12 UNK        -0.2672 
      8 C8         30.3179   24.6139    4.9390 C.3       12 UNK         0.0333 
      9 C9         31.2270   24.9090    3.7564 C.ar      12 UNK        -0.0807 
     10 C10        32.5528   24.4704    3.7722 C.ar      12 UNK        -0.0894 
     11 C11        33.4077   24.7606    2.7066 C.ar      12 UNK        -0.0804 
     12 C12        32.9224   25.4871    1.6155 C.ar      12 UNK        -0.0824 
     13 C13        31.5931   25.9225    1.5745 C.ar      12 UNK        -0.0762 
     14 C14        30.7516   25.6291    2.6574 C.ar      12 UNK        -0.0782 
     15 C15        31.1316   26.7354    0.3623 C.3       12 UNK         0.0230 
     16 S16        29.3329   26.7184    0.0506 S.3       12 UNK        -0.2608 
     17 C17        28.7305   28.0723    1.1196 C.3       12 UNK        -0.0989 
     18 CA         27.8356   29.0712    0.3438 C.3       5 UNK         0.0716 
     19 N          26.6737   28.4073   -0.2448 N.am      5 UNK        -0.4135 
     20 C          25.8585   28.9211   -1.1709 C.2       4 UNK         0.5031 
     21 O          25.9931   30.0497   -1.6488 O.2       4 UNK        -0.5229 
     22 CA         24.7320   27.9920   -1.6722 C.3       4 UNK         0.0329 
     23 CB         23.8164   28.6740   -2.7065 C.3       4 UNK        -0.2001 
     24 N          25.2643   26.7530   -2.2521 N.am      4 UNK        -0.4303 
     25 C          25.7385   25.7143   -1.5523 C.2       3 UNK         0.5044 
     26 O          25.7447   25.6722   -0.3186 O.2       3 UNK        -0.5152 
     27 CA         26.3299   24.5535   -2.3613 C.3       3 UNK         0.0319 
     28 CB         27.6705   24.9487   -3.0131 C.3       3 UNK        -0.2001 
     29 N          26.5149   23.4080   -1.4740 N.am      3 UNK        -0.4354 
     30 C          26.6969   22.1392   -1.8508 C.2       2 UNK         0.4964 
     31 O          26.7737   21.7864   -3.0296 O.2       2 UNK        -0.5047 
     32 CA         26.8088   21.0920   -0.7245 C.3       2 UNK         0.0288 
     33 CB         27.0505   19.6667   -1.2588 C.3       2 UNK        -0.2113 
     34 N          27.8603   21.4089    0.2465 N.am      2 UNK        -0.4145 
     35 C          27.7398   22.2569    1.2791 C.2       1 UNK         0.5006 
     36 O          26.7409   22.9585    1.4519 O.2       1 UNK        -0.5103 
     37 C          27.3900   30.2190    1.2678 C.2       5 UNK         0.5055 
     38 O          26.5494   30.0032    2.1451 O.2       5 UNK        -0.5220 
     39 N          27.9898   31.4008    1.0823 N.am      6 UNK        -0.4450 
     40 CA         27.8912   32.5273    2.0114 C.3       6 UNK         0.0367 
     41 CB         28.3330   33.8105    1.2886 C.3       6 UNK        -0.1929 
     42 C          28.7809   32.2789    3.2387 C.2       6 UNK         0.5070 
     43 O          29.7781   31.5625    3.1290 O.2       6 UNK        -0.5237 
     44 N          28.4585   32.9211    4.3683 N.am      7 UNK        -0.4739 
     45 CA         29.1935   32.7942    5.6360 C.3       7 UNK         0.0276 
     46 CB         28.4669   33.5960    6.7278 C.3       7 UNK        -0.1927 
     47 C          30.6763   33.2089    5.5595 C.2       7 UNK         0.5013 
     48 O          31.4950   32.6571    6.2941 O.2       7 UNK        -0.5193 
     49 N          30.9937   34.1513    4.6612 N.am      8 UNK        -0.4253 
     50 CA         32.3592   34.5859    4.3585 C.3       8 UNK         0.0242 
     51 CB         32.3107   36.0058    3.7697 C.3       8 UNK        -0.2000 
     52 C          33.1028   33.6362    3.3990 C.2       8 UNK         0.4948 
     53 O          34.3339   33.6631    3.3758 O.2       8 UNK        -0.5275 
     54 N          32.3626   32.8420    2.6122 N.am      9 UNK        -0.4246 
     55 CA         32.9067   31.8935    1.6372 C.3       9 UNK         0.0261 
     56 CB         31.9766   31.8293    0.4137 C.3       9 UNK        -0.1959 
     57 C          33.0892   30.4925    2.2396 C.2       9 UNK         0.5033 
     58 O          34.0306   29.7951    1.8592 O.2       9 UNK        -0.5390 
     59 N          32.1825   30.1004    3.1453 N.am      10 UNK        -0.4215 
     60 CA         32.1837   28.8191    3.8484 C.3       10 UNK         0.0240 
     61 CB         30.8948   28.7006    4.6785 C.3       10 UNK        -0.1982 
     62 C          33.4226   28.6225    4.7367 C.2       10 UNK         0.4970 
     63 O          33.9025   29.5808    5.3465 O.2       10 UNK        -0.4916 
     64 N          33.8931   27.3726    4.8101 N.am      11 UNK        -0.4279 
     65 CA         35.0761   26.9651    5.5857 C.3       11 UNK         0.1003 
     66 C          34.8782   26.9603    7.1304 C.2       11 UNK         0.5709 
     67 N          33.6613   27.0765    7.6495 N.am      11 UNK        -0.7358 
     68 O          35.8517   26.8531    7.8725 O.2       11 UNK        -0.4999 
     69 C69        35.6469   25.6048    5.1019 C.3       12 UNK        -0.0954 
     70 S70        36.0007   25.5627    3.3104 S.3       12 UNK        -0.2268 
     71 C71        34.8511   24.2775    2.7234 C.3       12 UNK         0.0203 
     72 H72        31.1375   18.9747    2.4903 H         1 UNK         0.0888 
     73 H73        30.2405   18.3111    3.8568 H         1 UNK         0.0888 
     74 H74        29.7770   17.8868    2.2064 H         1 UNK         0.0888 
     75 H75        30.6233   21.0974    2.1019 H         1 UNK         0.3017 
     76 H76        29.6196   23.0330    1.8670 H         1 UNK         0.0873 
     77 H77        28.0719   23.8864    3.5611 H         1 UNK         0.0745 
     78 H78        27.6354   22.2789    4.0632 H         1 UNK         0.0745 
     79 H79        30.8608   24.8122    5.8644 H         1 UNK         0.0705 
     80 H80        29.4525   25.2783    4.9491 H         1 UNK         0.0705 
     81 H81        32.9143   23.8997    4.6169 H         1 UNK         0.1334 
     82 H82        33.5877   25.7165    0.7938 H         1 UNK         0.1417 
     83 H83        29.7248   25.9618    2.6600 H         1 UNK         0.1562 
     84 H84        31.6130   26.3367   -0.5320 H         1 UNK         0.0748 
     85 H85        31.4830   27.7635    0.4612 H         1 UNK         0.0748 
     86 H86        29.5818   28.5927    1.5634 H         1 UNK         0.0940 
     87 H87        28.1771   27.6321    1.9516 H         1 UNK         0.0940 
     88 H88        28.4244   29.4900   -0.4755 H         1 UNK         0.0703 
     89 H89        26.4941   27.4562    0.0620 H         1 UNK         0.3081 
     90 H90        24.1176   27.7377   -0.8056 H         1 UNK         0.0719 
     91 H91        24.3625   28.9549   -3.6080 H         1 UNK         0.0809 
     92 H92        22.9947   28.0209   -3.0010 H         1 UNK         0.0809 
     93 H93        23.3735   29.5829   -2.2969 H         1 UNK         0.0809 
     94 H94        25.3251   26.7230   -3.2600 H         1 UNK         0.2990 
     95 H95        25.6103   24.2853   -3.1377 H         1 UNK         0.0690 
     96 H96        28.0455   24.1588   -3.6638 H         1 UNK         0.0788 
     97 H97        28.4359   25.1497   -2.2641 H         1 UNK         0.0788 
     98 H98        27.5698   25.8446   -3.6267 H         1 UNK         0.0788 
     99 H99        26.4367   23.6247   -0.4821 H         1 UNK         0.2993 
    100 H100       25.8471   21.0870   -0.2063 H         1 UNK         0.0949 
    101 H101       26.2574   19.3652   -1.9446 H         1 UNK         0.0767 
    102 H102       27.9957   19.5920   -1.7983 H         1 UNK         0.0767 
    103 H103       27.0676   18.9376   -0.4483 H         1 UNK         0.0767 
    104 H104       28.7230   20.8926    0.1570 H         1 UNK         0.3013 
    105 H105       28.6736   31.4873    0.3455 H         1 UNK         0.3121 
    106 H106       26.8542   32.6369    2.3367 H         1 UNK         0.0774 
    107 H107       28.2372   34.6810    1.9389 H         1 UNK         0.0815 
    108 H108       29.3735   33.7584    0.9649 H         1 UNK         0.0815 
    109 H109       27.7183   33.9999    0.4083 H         1 UNK         0.0815 
    110 H110       27.6360   33.5083    4.3784 H         1 UNK         0.2987 
    111 H111       29.1744   31.7389    5.9178 H         1 UNK         0.0949 
    112 H112       28.4224   34.6589    6.4871 H         1 UNK         0.0806 
    113 H113       27.4467   33.2395    6.8708 H         1 UNK         0.0806 
    114 H114       28.9776   33.5006    7.6874 H         1 UNK         0.0806 
    115 H115       30.2479   34.5636    4.1199 H         1 UNK         0.3010 
    116 H116       32.9303   34.6235    5.2889 H         1 UNK         0.0829 
    117 H117       31.8477   36.7079    4.4635 H         1 UNK         0.0813 
    118 H118       33.3155   36.3758    3.5605 H         1 UNK         0.0813 
    119 H119       31.7510   36.0378    2.8340 H         1 UNK         0.0813 
    120 H120       31.3600   32.8166    2.7503 H         1 UNK         0.3038 
    121 H121       33.8847   32.2407    1.2964 H         1 UNK         0.0769 
    122 H122       32.3845   31.1642   -0.3487 H         1 UNK         0.0811 
    123 H123       31.8548   32.8109   -0.0444 H         1 UNK         0.0811 
    124 H124       30.9876   31.4538    0.6755 H         1 UNK         0.0811 
    125 H125       31.3975   30.7186    3.3373 H         1 UNK         0.3204 
    126 H126       32.1850   28.0430    3.0858 H         1 UNK         0.0748 
    127 H127       30.8437   27.7403    5.1925 H         1 UNK         0.0771 
    128 H128       30.8348   29.4832    5.4364 H         1 UNK         0.0771 
    129 H129       30.0077   28.7782    4.0498 H         1 UNK         0.0771 
    130 H130       33.4506   26.6422    4.2697 H         1 UNK         0.2980 
    131 H131       35.8456   27.7158    5.3956 H         1 UNK         0.0545 
    132 H132       33.5511   27.0756    8.6511 H         1 UNK         0.3459 
    133 H133       32.8578   27.1767    7.0521 H         1 UNK         0.3459 
    134 H134       36.5849   25.3881    5.6162 H         1 UNK         0.0616 
    135 H135       34.9711   24.7908    5.3656 H         1 UNK         0.0616 
    136 H136       35.1463   23.9813    1.7157 H         1 UNK         0.0634 
    137 H137       34.9531   23.3842    3.3417 H         1 UNK         0.0634 
@<TRIPOS>BOND
     1    1    2 1    
     2    1   72 1    
     3    1   73 1    
     4    1   74 1    
     5    2    3 2    
     6    2    4 am   BACKBONE|DICT|INTERRES
     7    4    5 1    
     8    4   75 1    
     9    5    6 1    
    10    5   35 1    
    11    5   76 1    
    12    6    7 1    
    13    6   77 1    
    14    6   78 1    
    15    7    8 1    
    16    8    9 1    
    17    8   79 1    
    18    8   80 1    
    19    9   10 ar   
    20    9   14 ar   
    21   10   11 ar   
    22   10   81 1    
    23   11   12 ar   
    24   11   71 1    
    25   12   13 ar   
    26   12   82 1    
    27   13   14 ar   
    28   13   15 1    
    29   14   83 1    
    30   15   16 1    
    31   15   84 1    
    32   15   85 1    
    33   16   17 1    
    34   17   18 1    
    35   17   86 1    
    36   17   87 1    
    37   18   19 1    
    38   18   37 1    
    39   18   88 1    
    40   19   20 am   BACKBONE|DICT|INTERRES
    41   19   89 1    
    42   20   21 2    
    43   20   22 1    
    44   22   23 1    
    45   22   24 1    
    46   22   90 1    
    47   23   91 1    
    48   23   92 1    
    49   23   93 1    
    50   24   25 am   BACKBONE|DICT|INTERRES
    51   24   94 1    
    52   25   26 2    
    53   25   27 1    
    54   27   28 1    
    55   27   29 1    
    56   27   95 1    
    57   28   96 1    
    58   28   97 1    
    59   28   98 1    
    60   29   30 am   BACKBONE|DICT|INTERRES
    61   29   99 1    
    62   30   31 2    
    63   30   32 1    
    64   32   33 1    
    65   32   34 1    
    66   32  100 1    
    67   33  101 1    
    68   33  102 1    
    69   33  103 1    
    70   34   35 am   BACKBONE|DICT|INTERRES
    71   34  104 1    
    72   35   36 2    
    73   37   38 2    
    74   37   39 am   BACKBONE|DICT|INTERRES
    75   39   40 1    
    76   39  105 1    
    77   40   41 1    
    78   40   42 1    
    79   40  106 1    
    80   41  107 1    
    81   41  108 1    
    82   41  109 1    
    83   42   43 2    
    84   42   44 am   BACKBONE|DICT|INTERRES
    85   44   45 1    
    86   44  110 1    
    87   45   46 1    
    88   45   47 1    
    89   45  111 1    
    90   46  112 1    
    91   46  113 1    
    92   46  114 1    
    93   47   48 2    
    94   47   49 am   BACKBONE|DICT|INTERRES
    95   49   50 1    
    96   49  115 1    
    97   50   51 1    
    98   50   52 1    
    99   50  116 1    
   100   51  117 1    
   101   51  118 1    
   102   51  119 1    
   103   52   53 2    
   104   52   54 am   BACKBONE|DICT|INTERRES
   105   54   55 1    
   106   54  120 1    
   107   55   56 1    
   108   55   57 1    
   109   55  121 1    
   110   56  122 1    
   111   56  123 1    
   112   56  124 1    
   113   57   58 2    
   114   57   59 am   BACKBONE|DICT|INTERRES
   115   59   60 1    
   116   59  125 1    
   117   60   61 1    
   118   60   62 1    
   119   60  126 1    
   120   61  127 1    
   121   61  128 1    
   122   61  129 1    
   123   62   63 2    
   124   62   64 am   BACKBONE|DICT|INTERRES
   125   64   65 1    
   126   64  130 1    
   127   65   66 1    
   128   65   69 1    
   129   65  131 1    
   130   66   67 am   BACKBONE|DICT|INTERRES
   131   66   68 2    
   132   67  132 1    
   133   67  133 1    
   134   69   70 1    
   135   69  134 1    
   136   69  135 1    
   137   70   71 1    
   138   71  136 1    
   139   71  137 1    
@<TRIPOS>SUBSTRUCTURE
     1 UNK         1 GROUP             0       ****    0 ROOT    
