@<TRIPOS>MOLECULE
3R136
137   139    1
SMALL
USER_CHARGES


@<TRIPOS>ATOM
      1 CA         24.9611   28.0926    1.1401 C.3       0 UNK        -0.1979 
      2 C          25.5051   27.0828    2.1384 C.2       0 UNK         0.4864 
      3 O          24.9050   26.8864    3.1949 O.2       0 UNK        -0.5359 
      4 N          26.6310   26.4382    1.8091 N.am      1 UNK        -0.4318 
      5 CA         27.1882   25.3076    2.5574 C.3       1 UNK         0.0824 
      6 C6         28.7259   25.2330    2.4060 C.3       12 UNK        -0.0944 
      7 S7         29.5057   24.1109    3.6141 S.3       12 UNK        -0.2672 
      8 C8         30.7114   23.2337    2.5662 C.3       12 UNK         0.0333 
      9 C9         31.8486   24.1564    2.1533 C.ar      12 UNK        -0.0807 
     10 C10        32.8407   24.4897    3.0780 C.ar      12 UNK        -0.0894 
     11 C11        33.8584   25.3817    2.7344 C.ar      12 UNK        -0.0804 
     12 C12        33.8795   25.9424    1.4536 C.ar      12 UNK        -0.0824 
     13 C13        32.9028   25.6081    0.5087 C.ar      12 UNK        -0.0762 
     14 C14        31.8995   24.6953    0.8637 C.ar      12 UNK        -0.0782 
     15 C15        32.9722   26.2451   -0.8824 C.3       12 UNK         0.0230 
     16 S16        31.3616   26.4788   -1.7173 S.3       12 UNK        -0.2608 
     17 C17        30.4269   27.4081   -0.4562 C.3       12 UNK        -0.0989 
     18 CA         29.4254   28.4494   -1.0369 C.3       5 UNK         0.0716 
     19 N          28.5395   27.8990   -2.0707 N.am      5 UNK        -0.4135 
     20 C          27.6558   26.9032   -1.9237 C.2       4 UNK         0.5031 
     21 O          27.4662   26.2833   -0.8689 O.2       4 UNK        -0.5229 
     22 CA         26.8908   26.5096   -3.1997 C.3       4 UNK         0.0329 
     23 CB         27.7795   25.6412   -4.1057 C.3       4 UNK        -0.2001 
     24 N          25.6843   25.7545   -2.8768 N.am      4 UNK        -0.4303 
     25 C          24.5418   26.2684   -2.4099 C.2       3 UNK         0.5044 
     26 O          24.2969   27.4742   -2.3702 O.2       3 UNK        -0.5152 
     27 CA         23.5164   25.2678   -1.8425 C.3       3 UNK         0.0319 
     28 CB         22.7291   24.5582   -2.9619 C.3       3 UNK        -0.2001 
     29 N          24.1137   24.3191   -0.8874 N.am      3 UNK        -0.4354 
     30 C          24.9990   23.3370   -1.1215 C.2       2 UNK         0.4964 
     31 O          25.3687   22.9914   -2.2449 O.2       2 UNK        -0.5047 
     32 CA         25.6705   22.7465    0.1220 C.3       2 UNK         0.0288 
     33 CB         26.6565   21.6046   -0.1937 C.3       2 UNK        -0.2113 
     34 N          26.3789   23.8407    0.7795 N.am      2 UNK        -0.4145 
     35 C          26.4975   24.0074    2.1022 C.2       1 UNK         0.5006 
     36 O          26.0569   23.2163    2.9378 O.2       1 UNK        -0.5103 
     37 C          28.6111   29.1840    0.0564 C.2       5 UNK         0.5055 
     38 O          27.5314   29.7055   -0.2301 O.2       5 UNK        -0.5220 
     39 N          29.1367   29.2184    1.2847 N.am      6 UNK        -0.4450 
     40 CA         28.5013   29.7367    2.4875 C.3       6 UNK         0.0367 
     41 CB         28.5776   31.2730    2.5284 C.3       6 UNK        -0.1929 
     42 C          29.2555   29.1011    3.6554 C.2       6 UNK         0.5070 
     43 O          30.4821   29.2248    3.7014 O.2       6 UNK        -0.5237 
     44 N          28.5328   28.4023    4.5404 N.am      7 UNK        -0.4739 
     45 CA         29.0917   27.6449    5.6656 C.3       7 UNK         0.0276 
     46 CB         27.9531   26.9609    6.4392 C.3       7 UNK        -0.1927 
     47 C          29.9267   28.5345    6.6004 C.2       7 UNK         0.5013 
     48 O          29.4209   29.5571    7.0691 O.2       7 UNK        -0.5193 
     49 N          31.1964   28.1561    6.8037 N.am      8 UNK        -0.4253 
     50 CA         32.2609   28.8649    7.5308 C.3       8 UNK         0.0242 
     51 CB         31.8957   29.0895    9.0113 C.3       8 UNK        -0.2000 
     52 C          32.7206   30.1766    6.8654 C.2       8 UNK         0.4948 
     53 O          33.9245   30.4214    6.7999 O.2       8 UNK        -0.5275 
     54 N          31.7770   30.9875    6.3711 N.am      9 UNK        -0.4246 
     55 CA         32.0088   32.2830    5.7292 C.3       9 UNK         0.0261 
     56 CB         30.6596   32.9603    5.4462 C.3       9 UNK        -0.1959 
     57 C          32.8634   32.2054    4.4526 C.2       9 UNK         0.5033 
     58 O          33.7132   33.0740    4.2502 O.2       9 UNK        -0.5390 
     59 N          32.6571   31.1654    3.6314 N.am      10 UNK        -0.4215 
     60 CA         33.4630   30.9052    2.4328 C.3       10 UNK         0.0240 
     61 CB         32.6566   30.0276    1.4621 C.3       10 UNK        -0.1982 
     62 C          34.8180   30.2410    2.7405 C.2       10 UNK         0.4970 
     63 O          35.6570   30.1606    1.8424 O.2       10 UNK        -0.4916 
     64 N          35.0010   29.7492    3.9717 N.am      11 UNK        -0.4279 
     65 CA         36.1611   28.9517    4.3953 C.3       11 UNK         0.1003 
     66 C          37.3688   29.7970    4.8900 C.2       11 UNK         0.5709 
     67 N          37.2600   31.1162    4.9990 N.am      11 UNK        -0.7358 
     68 O          38.4323   29.2462    5.1650 O.2       11 UNK        -0.4999 
     69 C69        35.7665   27.8573    5.4274 C.3       12 UNK        -0.0954 
     70 S70        34.2602   26.9351    4.9635 S.3       12 UNK        -0.2268 
     71 C71        34.9221   25.7517    3.7549 C.3       12 UNK         0.0203 
     72 H72        25.0856   29.1061    1.5199 H         1 UNK         0.0888 
     73 H73        25.4691   28.0254    0.1785 H         1 UNK         0.0888 
     74 H74        23.8993   27.9193    0.9675 H         1 UNK         0.0888 
     75 H75        27.0381   26.5983    0.8891 H         1 UNK         0.3017 
     76 H76        26.9628   25.4468    3.6163 H         1 UNK         0.0873 
     77 H77        28.9951   24.9362    1.3915 H         1 UNK         0.0745 
     78 H78        29.1654   26.2192    2.5591 H         1 UNK         0.0745 
     79 H79        31.1149   22.3873    3.1239 H         1 UNK         0.0705 
     80 H80        30.2068   22.8136    1.6946 H         1 UNK         0.0705 
     81 H81        32.8061   24.0745    4.0762 H         1 UNK         0.1334 
     82 H82        34.6604   26.6442    1.1926 H         1 UNK         0.1417 
     83 H83        31.1407   24.4199    0.1447 H         1 UNK         0.1562 
     84 H84        33.6042   25.6230   -1.5171 H         1 UNK         0.0748 
     85 H85        33.4614   27.2188   -0.8210 H         1 UNK         0.0748 
     86 H86        31.1541   27.9008    0.1888 H         1 UNK         0.0940 
     87 H87        29.9044   26.6834    0.1663 H         1 UNK         0.0940 
     88 H88        30.0123   29.2239   -1.5329 H         1 UNK         0.0703 
     89 H89        28.6051   28.3485   -2.9721 H         1 UNK         0.3081 
     90 H90        26.6073   27.4170   -3.7371 H         1 UNK         0.0719 
     91 H91        28.0922   24.7250   -3.6024 H         1 UNK         0.0809 
     92 H92        27.2576   25.3592   -5.0203 H         1 UNK         0.0809 
     93 H93        28.6843   26.1738   -4.4017 H         1 UNK         0.0809 
     94 H94        25.7796   24.7438   -2.8309 H         1 UNK         0.2990 
     95 H95        22.7986   25.8515   -1.2635 H         1 UNK         0.0690 
     96 H96        21.9841   23.8769   -2.5510 H         1 UNK         0.0788 
     97 H97        23.3772   23.9856   -3.6256 H         1 UNK         0.0788 
     98 H98        22.1990   25.2841   -3.5798 H         1 UNK         0.0788 
     99 H99        23.9132   24.5248    0.0818 H         1 UNK         0.2993 
    100 H100       24.8794   22.3607    0.7690 H         1 UNK         0.0949 
    101 H101       26.1534   20.7855   -0.7091 H         1 UNK         0.0767 
    102 H102       27.4744   21.9423   -0.8316 H         1 UNK         0.0767 
    103 H103       27.0920   21.1961    0.7185 H         1 UNK         0.0767 
    104 H104       26.7490   24.5580    0.1629 H         1 UNK         0.3013 
    105 H105       30.0335   28.7857    1.4620 H         1 UNK         0.3121 
    106 H106       27.4560   29.4243    2.5098 H         1 UNK         0.0774 
    107 H107       28.1280   31.6595    3.4435 H         1 UNK         0.0815 
    108 H108       28.0399   31.7201    1.6923 H         1 UNK         0.0815 
    109 H109       29.6085   31.6271    2.4881 H         1 UNK         0.0815 
    110 H110       27.5285   28.3757    4.4406 H         1 UNK         0.2987 
    111 H111       29.7355   26.8681    5.2464 H         1 UNK         0.0949 
    112 H112       27.2502   27.6878    6.8484 H         1 UNK         0.0806 
    113 H113       27.3945   26.2734    5.8050 H         1 UNK         0.0806 
    114 H114       28.3447   26.3800    7.2754 H         1 UNK         0.0806 
    115 H115       31.5108   27.3241    6.3227 H         1 UNK         0.3010 
    116 H116       33.1209   28.1937    7.5125 H         1 UNK         0.0829 
    117 H117       31.0600   29.7797    9.1294 H         1 UNK         0.0813 
    118 H118       31.6291   28.1526    9.5003 H         1 UNK         0.0813 
    119 H119       32.7404   29.5113    9.5577 H         1 UNK         0.0813 
    120 H120       30.8113   30.6900    6.4878 H         1 UNK         0.3038 
    121 H121       32.5542   32.9033    6.4436 H         1 UNK         0.0769 
    122 H122       30.7975   33.9192    4.9444 H         1 UNK         0.0811 
    123 H123       30.0285   32.3427    4.8089 H         1 UNK         0.0811 
    124 H124       30.1129   33.1535    6.3693 H         1 UNK         0.0811 
    125 H125       31.9259   30.4892    3.8462 H         1 UNK         0.3204 
    126 H126       33.6704   31.8548    1.9348 H         1 UNK         0.0748 
    127 H127       32.4553   29.0449    1.8906 H         1 UNK         0.0771 
    128 H128       31.7058   30.4945    1.2064 H         1 UNK         0.0771 
    129 H129       33.2008   29.8702    0.5298 H         1 UNK         0.0771 
    130 H130       34.2966   29.9015    4.6808 H         1 UNK         0.2980 
    131 H131       36.5327   28.4250    3.5149 H         1 UNK         0.0545 
    132 H132       38.0509   31.6545    5.3152 H         1 UNK         0.3459 
    133 H133       36.3871   31.5730    4.7856 H         1 UNK         0.3459 
    134 H134       36.5839   27.1478    5.5680 H         1 UNK         0.0616 
    135 H135       35.5858   28.3071    6.4049 H         1 UNK         0.0616 
    136 H136       35.7921   26.1750    3.2516 H         1 UNK         0.0634 
    137 H137       35.2706   24.8594    4.2767 H         1 UNK         0.0634 
@<TRIPOS>BOND
     1    1    2 1    
     2    1   72 1    
     3    1   73 1    
     4    1   74 1    
     5    2    3 2    
     6    2    4 am   BACKBONE|DICT|INTERRES
     7    4    5 1    
     8    4   75 1    
     9    5    6 1    
    10    5   35 1    
    11    5   76 1    
    12    6    7 1    
    13    6   77 1    
    14    6   78 1    
    15    7    8 1    
    16    8    9 1    
    17    8   79 1    
    18    8   80 1    
    19    9   10 ar   
    20    9   14 ar   
    21   10   11 ar   
    22   10   81 1    
    23   11   12 ar   
    24   11   71 1    
    25   12   13 ar   
    26   12   82 1    
    27   13   14 ar   
    28   13   15 1    
    29   14   83 1    
    30   15   16 1    
    31   15   84 1    
    32   15   85 1    
    33   16   17 1    
    34   17   18 1    
    35   17   86 1    
    36   17   87 1    
    37   18   19 1    
    38   18   37 1    
    39   18   88 1    
    40   19   20 am   BACKBONE|DICT|INTERRES
    41   19   89 1    
    42   20   21 2    
    43   20   22 1    
    44   22   23 1    
    45   22   24 1    
    46   22   90 1    
    47   23   91 1    
    48   23   92 1    
    49   23   93 1    
    50   24   25 am   BACKBONE|DICT|INTERRES
    51   24   94 1    
    52   25   26 2    
    53   25   27 1    
    54   27   28 1    
    55   27   29 1    
    56   27   95 1    
    57   28   96 1    
    58   28   97 1    
    59   28   98 1    
    60   29   30 am   BACKBONE|DICT|INTERRES
    61   29   99 1    
    62   30   31 2    
    63   30   32 1    
    64   32   33 1    
    65   32   34 1    
    66   32  100 1    
    67   33  101 1    
    68   33  102 1    
    69   33  103 1    
    70   34   35 am   BACKBONE|DICT|INTERRES
    71   34  104 1    
    72   35   36 2    
    73   37   38 2    
    74   37   39 am   BACKBONE|DICT|INTERRES
    75   39   40 1    
    76   39  105 1    
    77   40   41 1    
    78   40   42 1    
    79   40  106 1    
    80   41  107 1    
    81   41  108 1    
    82   41  109 1    
    83   42   43 2    
    84   42   44 am   BACKBONE|DICT|INTERRES
    85   44   45 1    
    86   44  110 1    
    87   45   46 1    
    88   45   47 1    
    89   45  111 1    
    90   46  112 1    
    91   46  113 1    
    92   46  114 1    
    93   47   48 2    
    94   47   49 am   BACKBONE|DICT|INTERRES
    95   49   50 1    
    96   49  115 1    
    97   50   51 1    
    98   50   52 1    
    99   50  116 1    
   100   51  117 1    
   101   51  118 1    
   102   51  119 1    
   103   52   53 2    
   104   52   54 am   BACKBONE|DICT|INTERRES
   105   54   55 1    
   106   54  120 1    
   107   55   56 1    
   108   55   57 1    
   109   55  121 1    
   110   56  122 1    
   111   56  123 1    
   112   56  124 1    
   113   57   58 2    
   114   57   59 am   BACKBONE|DICT|INTERRES
   115   59   60 1    
   116   59  125 1    
   117   60   61 1    
   118   60   62 1    
   119   60  126 1    
   120   61  127 1    
   121   61  128 1    
   122   61  129 1    
   123   62   63 2    
   124   62   64 am   BACKBONE|DICT|INTERRES
   125   64   65 1    
   126   64  130 1    
   127   65   66 1    
   128   65   69 1    
   129   65  131 1    
   130   66   67 am   BACKBONE|DICT|INTERRES
   131   66   68 2    
   132   67  132 1    
   133   67  133 1    
   134   69   70 1    
   135   69  134 1    
   136   69  135 1    
   137   70   71 1    
   138   71  136 1    
   139   71  137 1    
@<TRIPOS>SUBSTRUCTURE
     1 UNK         1 GROUP             0       ****    0 ROOT    
