@<TRIPOS>MOLECULE
3R136
137   139    1
SMALL
USER_CHARGES


@<TRIPOS>ATOM
      1 CA         26.0930   19.0501    1.8890 C.3       0 UNK        -0.1979 
      2 C          26.9069   19.1977    0.6116 C.2       0 UNK         0.4864 
      3 O          26.7550   18.3914   -0.3079 O.2       0 UNK        -0.5359 
      4 N          27.7734   20.2160    0.5527 N.am      1 UNK        -0.4318 
      5 CA         28.5773   20.5686   -0.6206 C.3       1 UNK         0.0824 
      6 C6         29.8752   21.3228   -0.2194 C.3       12 UNK        -0.0944 
      7 S7         29.6098   22.8607    0.7345 S.3       12 UNK        -0.2672 
      8 C8         30.0967   22.3209    2.4021 C.3       12 UNK         0.0333 
      9 C9         29.8997   23.4209    3.4353 C.ar      12 UNK        -0.0807 
     10 C10        31.0030   24.0751    3.9921 C.ar      12 UNK        -0.0894 
     11 C11        30.8291   25.0429    4.9867 C.ar      12 UNK        -0.0804 
     12 C12        29.5371   25.3616    5.4192 C.ar      12 UNK        -0.0824 
     13 C13        28.4235   24.7335    4.8494 C.ar      12 UNK        -0.0762 
     14 C14        28.6127   23.7597    3.8639 C.ar      12 UNK        -0.0782 
     15 C15        27.0131   25.0880    5.3024 C.3       12 UNK         0.0230 
     16 S16        26.1687   26.1794    4.1097 S.3       12 UNK        -0.2608 
     17 C17        27.0191   27.7684    4.3905 C.3       12 UNK        -0.0989 
     18 CA         28.1756   27.9981    3.3829 C.3       5 UNK         0.0716 
     19 N          27.6828   28.1174    2.0084 N.am      5 UNK        -0.4135 
     20 C          28.4185   27.8746    0.9188 C.2       4 UNK         0.5031 
     21 O          29.5891   27.4875    0.9502 O.2       4 UNK        -0.5229 
     22 CA         27.7314   28.1406   -0.4339 C.3       4 UNK         0.0329 
     23 CB         27.7411   29.6431   -0.7606 C.3       4 UNK        -0.2001 
     24 N          28.3930   27.4126   -1.5184 N.am      4 UNK        -0.4303 
     25 C          28.3053   26.0885   -1.6937 C.2       3 UNK         0.5044 
     26 O          27.5370   25.3646   -1.0558 O.2       3 UNK        -0.5152 
     27 CA         29.2646   25.4872   -2.7377 C.3       3 UNK         0.0319 
     28 CB         30.7145   25.5172   -2.2213 C.3       3 UNK        -0.2001 
     29 N          28.9215   24.1035   -3.0637 N.am      3 UNK        -0.4354 
     30 C          27.9083   23.7198   -3.8520 C.2       2 UNK         0.4964 
     31 O          27.1914   24.5041   -4.4755 O.2       2 UNK        -0.5047 
     32 CA         27.6605   22.2040   -3.9880 C.3       2 UNK         0.0288 
     33 CB         28.2103   21.6875   -5.3284 C.3       2 UNK        -0.2113 
     34 N          28.2492   21.4196   -2.8958 N.am      2 UNK        -0.4145 
     35 C          27.7386   21.3482   -1.6580 C.2       1 UNK         0.5006 
     36 O          26.6729   21.8781   -1.3298 O.2       1 UNK        -0.5103 
     37 C          29.0346   29.2158    3.7831 C.2       5 UNK         0.5055 
     38 O          29.0845   30.2180    3.0613 O.2       5 UNK        -0.5220 
     39 N          29.6699   29.1118    4.9608 N.am      6 UNK        -0.4450 
     40 CA         30.6039   30.0736    5.5603 C.3       6 UNK         0.0367 
     41 CB         30.9959   29.5884    6.9653 C.3       6 UNK        -0.1929 
     42 C          30.1116   31.5291    5.6358 C.2       6 UNK         0.5070 
     43 O          30.9376   32.4385    5.5935 O.2       6 UNK        -0.5237 
     44 N          28.7885   31.7332    5.6956 N.am      7 UNK        -0.4739 
     45 CA         28.1354   33.0450    5.6323 C.3       7 UNK         0.0276 
     46 CB         26.6204   32.8601    5.8159 C.3       7 UNK        -0.1927 
     47 C          28.4276   33.8344    4.3393 C.2       7 UNK         0.5013 
     48 O          28.3652   35.0644    4.3692 O.2       7 UNK        -0.5193 
     49 N          28.7480   33.1265    3.2468 N.am      8 UNK        -0.4253 
     50 CA         29.1657   33.7043    1.9692 C.3       8 UNK         0.0242 
     51 CB         28.1473   33.3242    0.8825 C.3       8 UNK        -0.2000 
     52 C          30.5748   33.2405    1.5698 C.2       8 UNK         0.4948 
     53 O          31.3533   34.0555    1.0742 O.2       8 UNK        -0.5275 
     54 N          30.8819   31.9508    1.7699 N.am      9 UNK        -0.4246 
     55 CA         32.1142   31.3134    1.2950 C.3       9 UNK         0.0261 
     56 CB         31.8154   29.8391    0.9812 C.3       9 UNK        -0.1959 
     57 C          33.3022   31.4102    2.2664 C.2       9 UNK         0.5033 
     58 O          34.3909   30.9615    1.9034 O.2       9 UNK        -0.5390 
     59 N          33.0900   31.9285    3.4854 N.am      10 UNK        -0.4215 
     60 CA         34.0361   32.0414    4.6094 C.3       10 UNK         0.0240 
     61 CB         35.2635   32.8993    4.2422 C.3       10 UNK        -0.1982 
     62 C          34.4637   30.6990    5.2367 C.2       10 UNK         0.4970 
     63 O          34.5566   30.6239    6.4618 O.2       10 UNK        -0.4916 
     64 N          34.7174   29.6799    4.4049 N.am      11 UNK        -0.4279 
     65 CA         35.1996   28.3352    4.7718 C.3       11 UNK         0.1003 
     66 C          36.6295   28.3150    5.4005 C.2       11 UNK         0.5709 
     67 N          37.4450   29.3479    5.2203 N.am      11 UNK        -0.7358 
     68 O          37.0272   27.3375    6.0307 O.2       11 UNK        -0.4999 
     69 C69        34.1587   27.5154    5.5915 C.3       12 UNK        -0.0954 
     70 S70        32.6561   27.1098    4.6380 S.3       12 UNK        -0.2268 
     71 C71        32.0445   25.7042    5.6207 C.3       12 UNK         0.0203 
     72 H72        26.3442   19.8153    2.6235 H         1 UNK         0.0888 
     73 H73        25.0292   19.1299    1.6668 H         1 UNK         0.0888 
     74 H74        26.2755   18.0750    2.3400 H         1 UNK         0.0888 
     75 H75        27.8131   20.8814    1.3103 H         1 UNK         0.3017 
     76 H76        28.8837   19.6380   -1.1041 H         1 UNK         0.0873 
     77 H77        30.5124   20.6523    0.3595 H         1 UNK         0.0745 
     78 H78        30.4639   21.5724   -1.1036 H         1 UNK         0.0745 
     79 H79        31.1390   21.9984    2.3814 H         1 UNK         0.0705 
     80 H80        29.5107   21.4474    2.6906 H         1 UNK         0.0705 
     81 H81        32.0019   23.8194    3.6656 H         1 UNK         0.1334 
     82 H82        29.3988   26.0944    6.2016 H         1 UNK         0.1417 
     83 H83        27.7553   23.2648    3.4281 H         1 UNK         0.1562 
     84 H84        27.0238   25.5536    6.2891 H         1 UNK         0.0748 
     85 H85        26.4298   24.1722    5.4097 H         1 UNK         0.0748 
     86 H86        27.3679   27.7879    5.4241 H         1 UNK         0.0940 
     87 H87        26.2822   28.5704    4.3144 H         1 UNK         0.0940 
     88 H88        28.8404   27.1334    3.4176 H         1 UNK         0.0703 
     89 H89        26.7399   28.4589    1.9004 H         1 UNK         0.3081 
     90 H90        26.6947   27.8023   -0.3714 H         1 UNK         0.0719 
     91 H91        28.7534   30.0489   -0.7799 H         1 UNK         0.0809 
     92 H92        27.2793   29.8439   -1.7275 H         1 UNK         0.0809 
     93 H93        27.1778   30.2039   -0.0146 H         1 UNK         0.0809 
     94 H94        29.0759   27.9278   -2.0540 H         1 UNK         0.2990 
     95 H95        29.2020   26.0870   -3.6483 H         1 UNK         0.0690 
     96 H96        31.4064   25.0977   -2.9519 H         1 UNK         0.0788 
     97 H97        30.8221   24.9536   -1.2933 H         1 UNK         0.0788 
     98 H98        31.0427   26.5372   -2.0174 H         1 UNK         0.0788 
     99 H99        29.4209   23.3910   -2.5545 H         1 UNK         0.2993 
    100 H100       26.5788   22.0513   -3.9811 H         1 UNK         0.0949 
    101 H101       29.2920   21.8102   -5.3966 H         1 UNK         0.0767 
    102 H102       27.9810   20.6312   -5.4711 H         1 UNK         0.0767 
    103 H103       27.7677   22.2288   -6.1661 H         1 UNK         0.0767 
    104 H104       29.1155   20.9413   -3.0998 H         1 UNK         0.3013 
    105 H105       29.5685   28.2473    5.4690 H         1 UNK         0.3121 
    106 H106       31.4978   30.0657    4.9355 H         1 UNK         0.0774 
    107 H107       31.7421   30.2488    7.4101 H         1 UNK         0.0815 
    108 H108       30.1382   29.5651    7.6385 H         1 UNK         0.0815 
    109 H109       31.4305   28.5902    6.9422 H         1 UNK         0.0815 
    110 H110       28.1842   30.9256    5.7272 H         1 UNK         0.2987 
    111 H111       28.5144   33.6414    6.4650 H         1 UNK         0.0949 
    112 H112       26.1053   33.8218    5.8008 H         1 UNK         0.0806 
    113 H113       26.1894   32.2477    5.0228 H         1 UNK         0.0806 
    114 H114       26.3898   32.3874    6.7708 H         1 UNK         0.0806 
    115 H115       28.7714   32.1134    3.3202 H         1 UNK         0.3010 
    116 H116       29.1962   34.7940    2.0348 H         1 UNK         0.0829 
    117 H117       27.1581   33.7201    1.1128 H         1 UNK         0.0813 
    118 H118       28.4404   33.7258   -0.0885 H         1 UNK         0.0813 
    119 H119       28.0587   32.2433    0.7780 H         1 UNK         0.0813 
    120 H120       30.1885   31.3292    2.1835 H         1 UNK         0.3038 
    121 H121       32.4257   31.7933    0.3647 H         1 UNK         0.0769 
    122 H122       32.6880   29.3381    0.5601 H         1 UNK         0.0811 
    123 H123       31.0114   29.7446    0.2522 H         1 UNK         0.0811 
    124 H124       31.5253   29.2859    1.8755 H         1 UNK         0.0811 
    125 H125       32.1531   32.2472    3.7005 H         1 UNK         0.3204 
    126 H126       33.5003   32.5830    5.3895 H         1 UNK         0.0748 
    127 H127       35.8923   33.0699    5.1171 H         1 UNK         0.0771 
    128 H128       35.8880   32.4254    3.4848 H         1 UNK         0.0771 
    129 H129       34.9632   33.8768    3.8646 H         1 UNK         0.0771 
    130 H130       34.6543   29.8752    3.4091 H         1 UNK         0.2980 
    131 H131       35.3322   27.8158    3.8223 H         1 UNK         0.0545 
    132 H132       38.3701   29.3205    5.6191 H         1 UNK         0.3459 
    133 H133       37.1460   30.1495    4.6895 H         1 UNK         0.3459 
    134 H134       34.5947   26.5694    5.9157 H         1 UNK         0.0616 
    135 H135       33.8729   28.0415    6.5029 H         1 UNK         0.0616 
    136 H136       32.8399   24.9651    5.7288 H         1 UNK         0.0634 
    137 H137       31.8077   26.0481    6.6287 H         1 UNK         0.0634 
@<TRIPOS>BOND
     1    1    2 1    
     2    1   72 1    
     3    1   73 1    
     4    1   74 1    
     5    2    3 2    
     6    2    4 am   BACKBONE|DICT|INTERRES
     7    4    5 1    
     8    4   75 1    
     9    5    6 1    
    10    5   35 1    
    11    5   76 1    
    12    6    7 1    
    13    6   77 1    
    14    6   78 1    
    15    7    8 1    
    16    8    9 1    
    17    8   79 1    
    18    8   80 1    
    19    9   10 ar   
    20    9   14 ar   
    21   10   11 ar   
    22   10   81 1    
    23   11   12 ar   
    24   11   71 1    
    25   12   13 ar   
    26   12   82 1    
    27   13   14 ar   
    28   13   15 1    
    29   14   83 1    
    30   15   16 1    
    31   15   84 1    
    32   15   85 1    
    33   16   17 1    
    34   17   18 1    
    35   17   86 1    
    36   17   87 1    
    37   18   19 1    
    38   18   37 1    
    39   18   88 1    
    40   19   20 am   BACKBONE|DICT|INTERRES
    41   19   89 1    
    42   20   21 2    
    43   20   22 1    
    44   22   23 1    
    45   22   24 1    
    46   22   90 1    
    47   23   91 1    
    48   23   92 1    
    49   23   93 1    
    50   24   25 am   BACKBONE|DICT|INTERRES
    51   24   94 1    
    52   25   26 2    
    53   25   27 1    
    54   27   28 1    
    55   27   29 1    
    56   27   95 1    
    57   28   96 1    
    58   28   97 1    
    59   28   98 1    
    60   29   30 am   BACKBONE|DICT|INTERRES
    61   29   99 1    
    62   30   31 2    
    63   30   32 1    
    64   32   33 1    
    65   32   34 1    
    66   32  100 1    
    67   33  101 1    
    68   33  102 1    
    69   33  103 1    
    70   34   35 am   BACKBONE|DICT|INTERRES
    71   34  104 1    
    72   35   36 2    
    73   37   38 2    
    74   37   39 am   BACKBONE|DICT|INTERRES
    75   39   40 1    
    76   39  105 1    
    77   40   41 1    
    78   40   42 1    
    79   40  106 1    
    80   41  107 1    
    81   41  108 1    
    82   41  109 1    
    83   42   43 2    
    84   42   44 am   BACKBONE|DICT|INTERRES
    85   44   45 1    
    86   44  110 1    
    87   45   46 1    
    88   45   47 1    
    89   45  111 1    
    90   46  112 1    
    91   46  113 1    
    92   46  114 1    
    93   47   48 2    
    94   47   49 am   BACKBONE|DICT|INTERRES
    95   49   50 1    
    96   49  115 1    
    97   50   51 1    
    98   50   52 1    
    99   50  116 1    
   100   51  117 1    
   101   51  118 1    
   102   51  119 1    
   103   52   53 2    
   104   52   54 am   BACKBONE|DICT|INTERRES
   105   54   55 1    
   106   54  120 1    
   107   55   56 1    
   108   55   57 1    
   109   55  121 1    
   110   56  122 1    
   111   56  123 1    
   112   56  124 1    
   113   57   58 2    
   114   57   59 am   BACKBONE|DICT|INTERRES
   115   59   60 1    
   116   59  125 1    
   117   60   61 1    
   118   60   62 1    
   119   60  126 1    
   120   61  127 1    
   121   61  128 1    
   122   61  129 1    
   123   62   63 2    
   124   62   64 am   BACKBONE|DICT|INTERRES
   125   64   65 1    
   126   64  130 1    
   127   65   66 1    
   128   65   69 1    
   129   65  131 1    
   130   66   67 am   BACKBONE|DICT|INTERRES
   131   66   68 2    
   132   67  132 1    
   133   67  133 1    
   134   69   70 1    
   135   69  134 1    
   136   69  135 1    
   137   70   71 1    
   138   71  136 1    
   139   71  137 1    
@<TRIPOS>SUBSTRUCTURE
     1 UNK         1 GROUP             0       ****    0 ROOT    
