@<TRIPOS>MOLECULE
3R136
137   139    1
SMALL
USER_CHARGES


@<TRIPOS>ATOM
      1 CA         25.5918   28.1454    1.8589 C.3       0 UNK        -0.1979 
      2 C          25.8017   27.2341    3.0582 C.2       0 UNK         0.4864 
      3 O          25.5212   27.6351    4.1890 O.2       0 UNK        -0.5359 
      4 N          26.2873   26.0134    2.8190 N.am      1 UNK        -0.4318 
      5 CA         26.5632   24.9996    3.8363 C.3       1 UNK         0.0824 
      6 C6         27.9469   25.2004    4.5240 C.3       12 UNK        -0.0944 
      7 S7         29.3794   25.1739    3.3840 S.3       12 UNK        -0.2672 
      8 C8         29.7401   26.9490    3.2517 C.3       12 UNK         0.0333 
      9 C9         30.8329   27.2219    2.2325 C.ar      12 UNK        -0.0807 
     10 C10        32.1695   26.9468    2.5337 C.ar      12 UNK        -0.0894 
     11 C11        33.1777   27.2313    1.6074 C.ar      12 UNK        -0.0804 
     12 C12        32.8426   27.7875    0.3688 C.ar      12 UNK        -0.0824 
     13 C13        31.5087   28.0710    0.0614 C.ar      12 UNK        -0.0762 
     14 C14        30.5095   27.7815    0.9949 C.ar      12 UNK        -0.0782 
     15 C15        31.1383   28.7362   -1.2530 C.3       12 UNK         0.0230 
     16 S16        30.4397   27.5318   -2.4184 S.3       12 UNK        -0.2608 
     17 C17        29.3450   28.5992   -3.4191 C.3       12 UNK        -0.0989 
     18 CA         27.8522   28.5628   -2.9924 C.3       5 UNK         0.0716 
     19 N          27.3652   27.1923   -2.8154 N.am      5 UNK        -0.4135 
     20 C          26.0800   26.8309   -2.7120 C.2       4 UNK         0.5031 
     21 O          25.1391   27.6186   -2.8258 O.2       4 UNK        -0.5229 
     22 CA         25.7749   25.3393   -2.4779 C.3       4 UNK         0.0329 
     23 CB         25.1854   24.7084   -3.7510 C.3       4 UNK        -0.2001 
     24 N          26.9338   24.5466   -2.0523 N.am      4 UNK        -0.4303 
     25 C          27.4012   24.5009   -0.7990 C.2       3 UNK         0.5044 
     26 O          26.9520   25.1767    0.1309 O.2       3 UNK        -0.5152 
     27 CA         28.5740   23.5397   -0.5458 C.3       3 UNK         0.0319 
     28 CB         29.9125   24.2918   -0.5758 C.3       3 UNK        -0.2001 
     29 N          28.4117   22.9138    0.7625 N.am      3 UNK        -0.4354 
     30 C          27.6679   21.8238    1.0030 C.2       2 UNK         0.4964 
     31 O          27.1866   21.1104    0.1222 O.2       2 UNK        -0.5047 
     32 CA         27.3844   21.4957    2.4822 C.3       2 UNK         0.0288 
     33 CB         28.4690   20.5679    3.0527 C.3       2 UNK        -0.2113 
     34 N          27.3020   22.7100    3.2982 N.am      2 UNK        -0.4145 
     35 C          26.3233   23.6206    3.1936 C.2       1 UNK         0.5006 
     36 O          25.2700   23.4146    2.5852 O.2       1 UNK        -0.5103 
     37 C          27.5717   29.4286   -1.7447 C.2       5 UNK         0.5055 
     38 O          27.6013   28.9245   -0.6208 O.2       5 UNK        -0.5220 
     39 N          27.3034   30.7208   -1.9652 N.am      6 UNK        -0.4450 
     40 CA         26.9533   31.6830   -0.9215 C.3       6 UNK         0.0367 
     41 CB         26.1103   32.8107   -1.5459 C.3       6 UNK        -0.1929 
     42 C          28.2066   32.2246   -0.2126 C.2       6 UNK         0.5070 
     43 O          28.7225   33.2756   -0.5975 O.2       6 UNK        -0.5237 
     44 N          28.6682   31.5062    0.8142 N.am      7 UNK        -0.4739 
     45 CA         29.7088   31.9334    1.7479 C.3       7 UNK         0.0276 
     46 CB         31.1078   31.6441    1.1739 C.3       7 UNK        -0.1927 
     47 C          29.4954   31.2124    3.0850 C.2       7 UNK         0.5013 
     48 O          28.7728   30.2130    3.1337 O.2       7 UNK        -0.5193 
     49 N          30.1245   31.7344    4.1442 N.am      8 UNK        -0.4253 
     50 CA         30.1289   31.1336    5.4783 C.3       8 UNK         0.0242 
     51 CB         30.4499   32.2203    6.5179 C.3       8 UNK        -0.2000 
     52 C          31.1620   30.0005    5.5592 C.2       8 UNK         0.4948 
     53 O          32.2148   30.0832    4.9213 O.2       8 UNK        -0.5275 
     54 N          30.8808   28.9924    6.3943 N.am      9 UNK        -0.4246 
     55 CA         31.7206   27.8087    6.6161 C.3       9 UNK         0.0261 
     56 CB         30.8460   26.6744    7.1843 C.3       9 UNK        -0.1959 
     57 C          32.9688   28.0875    7.4817 C.2       9 UNK         0.5033 
     58 O          33.2383   27.3493    8.4316 O.2       9 UNK        -0.5390 
     59 N          33.7119   29.1478    7.1417 N.am      10 UNK        -0.4215 
     60 CA         35.0273   29.4606    7.7044 C.3       10 UNK         0.0240 
     61 CB         35.3572   30.9421    7.4577 C.3       10 UNK        -0.1982 
     62 C          36.1023   28.5425    7.1012 C.2       10 UNK         0.4970 
     63 O          36.9189   27.9858    7.8358 O.2       10 UNK        -0.4916 
     64 N          36.0496   28.3836    5.7743 N.am      11 UNK        -0.4279 
     65 CA         36.7746   27.3701    5.0013 C.3       11 UNK         0.1003 
     66 C          36.1727   25.9501    5.1920 C.2       11 UNK         0.5709 
     67 N          36.9751   24.9104    5.0087 N.am      11 UNK        -0.7358 
     68 O          34.9862   25.7793    5.4677 O.2       11 UNK        -0.4999 
     69 C69        36.8779   27.7657    3.4996 C.3       12 UNK        -0.0954 
     70 S70        35.3344   28.4340    2.7843 S.3       12 UNK        -0.2268 
     71 C71        34.6305   26.9727    1.9671 C.3       12 UNK         0.0203 
     72 H72        24.5726   28.5298    1.8468 H         1 UNK         0.0888 
     73 H73        26.2783   28.9905    1.9084 H         1 UNK         0.0888 
     74 H74        25.7679   27.6223    0.9185 H         1 UNK         0.0888 
     75 H75        26.4762   25.7202    1.8600 H         1 UNK         0.3017 
     76 H76        25.7990   25.0800    4.6124 H         1 UNK         0.0873 
     77 H77        28.1029   24.4461    5.2971 H         1 UNK         0.0745 
     78 H78        27.9418   26.1505    5.0607 H         1 UNK         0.0745 
     79 H79        28.8278   27.4811    2.9800 H         1 UNK         0.0705 
     80 H80        30.0416   27.3362    4.2235 H         1 UNK         0.0705 
     81 H81        32.4271   26.5225    3.4942 H         1 UNK         0.1334 
     82 H82        33.6220   28.0218   -0.3434 H         1 UNK         0.1417 
     83 H83        29.4778   28.0046    0.7621 H         1 UNK         0.1562 
     84 H84        32.0062   29.2164   -1.7074 H         1 UNK         0.0748 
     85 H85        30.4182   29.5309   -1.0541 H         1 UNK         0.0748 
     86 H86        29.4224   28.2508   -4.4503 H         1 UNK         0.0940 
     87 H87        29.7297   29.6210   -3.4370 H         1 UNK         0.0940 
     88 H88        27.2729   28.9936   -3.8123 H         1 UNK         0.0703 
     89 H89        28.0775   26.4947   -2.6618 H         1 UNK         0.3081 
     90 H90        25.0156   25.2882   -1.6942 H         1 UNK         0.0719 
     91 H91        24.2944   25.2464   -4.0782 H         1 UNK         0.0809 
     92 H92        24.8898   23.6728   -3.5811 H         1 UNK         0.0809 
     93 H93        25.8969   24.7248   -4.5777 H         1 UNK         0.0809 
     94 H94        27.3660   23.9646   -2.7561 H         1 UNK         0.2990 
     95 H95        28.5896   22.7678   -1.3184 H         1 UNK         0.0690 
     96 H96        29.9272   25.1200    0.1336 H         1 UNK         0.0788 
     97 H97        30.1045   24.7042   -1.5661 H         1 UNK         0.0788 
     98 H98        30.7462   23.6321   -0.3348 H         1 UNK         0.0788 
     99 H99        28.7255   23.4633    1.5503 H         1 UNK         0.2993 
    100 H100       26.4233   20.9789    2.5318 H         1 UNK         0.0949 
    101 H101       29.4537   21.0372    3.0364 H         1 UNK         0.0767 
    102 H102       28.2478   20.2860    4.0824 H         1 UNK         0.0767 
    103 H103       28.5368   19.6464    2.4727 H         1 UNK         0.0767 
    104 H104       28.1326   22.9689    3.8130 H         1 UNK         0.3013 
    105 H105       27.3359   31.0768   -2.9099 H         1 UNK         0.3121 
    106 H106       26.3298   31.1879   -0.1729 H         1 UNK         0.0774 
    107 H107       25.8375   33.5534   -0.7949 H         1 UNK         0.0815 
    108 H108       26.6484   33.3322   -2.3385 H         1 UNK         0.0815 
    109 H109       25.1828   32.4243   -1.9687 H         1 UNK         0.0815 
    110 H110       28.2087   30.6380    1.0691 H         1 UNK         0.2987 
    111 H111       29.6037   33.0069    1.9216 H         1 UNK         0.0949 
    112 H112       31.3030   30.5749    1.1191 H         1 UNK         0.0806 
    113 H113       31.2313   32.0631    0.1754 H         1 UNK         0.0806 
    114 H114       31.8854   32.0765    1.8044 H         1 UNK         0.0806 
    115 H115       30.7378   32.5246    4.0070 H         1 UNK         0.3010 
    116 H116       29.1366   30.7277    5.6887 H         1 UNK         0.0829 
    117 H117       31.4382   32.6540    6.3585 H         1 UNK         0.0813 
    118 H118       30.4336   31.8123    7.5295 H         1 UNK         0.0813 
    119 H119       29.7193   33.0289    6.4852 H         1 UNK         0.0813 
    120 H120       30.0245   29.0338    6.9287 H         1 UNK         0.3038 
    121 H121       32.0965   27.4746    5.6473 H         1 UNK         0.0769 
    122 H122       30.4494   26.9254    8.1687 H         1 UNK         0.0811 
    123 H123       31.4209   25.7531    7.2885 H         1 UNK         0.0811 
    124 H124       30.0045   26.4505    6.5295 H         1 UNK         0.0811 
    125 H125       33.3963   29.6880    6.3386 H         1 UNK         0.3204 
    126 H126       35.0008   29.2909    8.7830 H         1 UNK         0.0748 
    127 H127       34.6246   31.5938    7.9344 H         1 UNK         0.0771 
    128 H128       36.3343   31.1973    7.8703 H         1 UNK         0.0771 
    129 H129       35.3775   31.1848    6.3944 H         1 UNK         0.0771 
    130 H130       35.3296   28.8660    5.2572 H         1 UNK         0.2980 
    131 H131       37.7918   27.3326    5.3964 H         1 UNK         0.0545 
    132 H132       37.9474   25.0342    4.7723 H         1 UNK         0.3459 
    133 H133       36.6008   23.9807    5.1157 H         1 UNK         0.3459 
    134 H134       37.6311   28.5482    3.3972 H         1 UNK         0.0616 
    135 H135       37.2414   26.9367    2.8893 H         1 UNK         0.0616 
    136 H136       35.2129   26.7368    1.0752 H         1 UNK         0.0634 
    137 H137       34.7001   26.1058    2.6250 H         1 UNK         0.0634 
@<TRIPOS>BOND
     1    1    2 1    
     2    1   72 1    
     3    1   73 1    
     4    1   74 1    
     5    2    3 2    
     6    2    4 am   BACKBONE|DICT|INTERRES
     7    4    5 1    
     8    4   75 1    
     9    5    6 1    
    10    5   35 1    
    11    5   76 1    
    12    6    7 1    
    13    6   77 1    
    14    6   78 1    
    15    7    8 1    
    16    8    9 1    
    17    8   79 1    
    18    8   80 1    
    19    9   10 ar   
    20    9   14 ar   
    21   10   11 ar   
    22   10   81 1    
    23   11   12 ar   
    24   11   71 1    
    25   12   13 ar   
    26   12   82 1    
    27   13   14 ar   
    28   13   15 1    
    29   14   83 1    
    30   15   16 1    
    31   15   84 1    
    32   15   85 1    
    33   16   17 1    
    34   17   18 1    
    35   17   86 1    
    36   17   87 1    
    37   18   19 1    
    38   18   37 1    
    39   18   88 1    
    40   19   20 am   BACKBONE|DICT|INTERRES
    41   19   89 1    
    42   20   21 2    
    43   20   22 1    
    44   22   23 1    
    45   22   24 1    
    46   22   90 1    
    47   23   91 1    
    48   23   92 1    
    49   23   93 1    
    50   24   25 am   BACKBONE|DICT|INTERRES
    51   24   94 1    
    52   25   26 2    
    53   25   27 1    
    54   27   28 1    
    55   27   29 1    
    56   27   95 1    
    57   28   96 1    
    58   28   97 1    
    59   28   98 1    
    60   29   30 am   BACKBONE|DICT|INTERRES
    61   29   99 1    
    62   30   31 2    
    63   30   32 1    
    64   32   33 1    
    65   32   34 1    
    66   32  100 1    
    67   33  101 1    
    68   33  102 1    
    69   33  103 1    
    70   34   35 am   BACKBONE|DICT|INTERRES
    71   34  104 1    
    72   35   36 2    
    73   37   38 2    
    74   37   39 am   BACKBONE|DICT|INTERRES
    75   39   40 1    
    76   39  105 1    
    77   40   41 1    
    78   40   42 1    
    79   40  106 1    
    80   41  107 1    
    81   41  108 1    
    82   41  109 1    
    83   42   43 2    
    84   42   44 am   BACKBONE|DICT|INTERRES
    85   44   45 1    
    86   44  110 1    
    87   45   46 1    
    88   45   47 1    
    89   45  111 1    
    90   46  112 1    
    91   46  113 1    
    92   46  114 1    
    93   47   48 2    
    94   47   49 am   BACKBONE|DICT|INTERRES
    95   49   50 1    
    96   49  115 1    
    97   50   51 1    
    98   50   52 1    
    99   50  116 1    
   100   51  117 1    
   101   51  118 1    
   102   51  119 1    
   103   52   53 2    
   104   52   54 am   BACKBONE|DICT|INTERRES
   105   54   55 1    
   106   54  120 1    
   107   55   56 1    
   108   55   57 1    
   109   55  121 1    
   110   56  122 1    
   111   56  123 1    
   112   56  124 1    
   113   57   58 2    
   114   57   59 am   BACKBONE|DICT|INTERRES
   115   59   60 1    
   116   59  125 1    
   117   60   61 1    
   118   60   62 1    
   119   60  126 1    
   120   61  127 1    
   121   61  128 1    
   122   61  129 1    
   123   62   63 2    
   124   62   64 am   BACKBONE|DICT|INTERRES
   125   64   65 1    
   126   64  130 1    
   127   65   66 1    
   128   65   69 1    
   129   65  131 1    
   130   66   67 am   BACKBONE|DICT|INTERRES
   131   66   68 2    
   132   67  132 1    
   133   67  133 1    
   134   69   70 1    
   135   69  134 1    
   136   69  135 1    
   137   70   71 1    
   138   71  136 1    
   139   71  137 1    
@<TRIPOS>SUBSTRUCTURE
     1 UNK         1 GROUP             0       ****    0 ROOT    
