@<TRIPOS>MOLECULE
3R136
137   139    1
SMALL
USER_CHARGES


@<TRIPOS>ATOM
      1 CA         29.7299   18.7404   -2.0751 C.3       0 UNK        -0.1979 
      2 C          28.9673   20.0423   -2.2679 C.2       0 UNK         0.4864 
      3 O          27.8260   20.0231   -2.7320 O.2       0 UNK        -0.5359 
      4 N          29.5775   21.1764   -1.9010 N.am      1 UNK        -0.4318 
      5 CA         29.0322   22.5366   -2.0091 C.3       1 UNK         0.0824 
      6 C6         30.1748   23.5838   -2.1231 C.3       12 UNK        -0.0944 
      7 S7         31.3826   23.5299   -0.7485 S.3       12 UNK        -0.2672 
      8 C8         31.1733   25.1831   -0.0175 C.3       12 UNK         0.0333 
      9 C9         31.3952   25.1514    1.4841 C.ar      12 UNK        -0.0807 
     10 C10        32.6302   25.5065    2.0327 C.ar      12 UNK        -0.0894 
     11 C11        32.8105   25.5108    3.4191 C.ar      12 UNK        -0.0804 
     12 C12        31.7438   25.1694    4.2566 C.ar      12 UNK        -0.0824 
     13 C13        30.5067   24.8030    3.7183 C.ar      12 UNK        -0.0762 
     14 C14        30.3460   24.7817    2.3292 C.ar      12 UNK        -0.0782 
     15 C15        29.3558   24.4171    4.6410 C.3       12 UNK         0.0230 
     16 S16        27.7888   25.2499    4.2200 S.3       12 UNK        -0.2608 
     17 C17        28.2029   27.0094    4.4974 C.3       12 UNK        -0.0989 
     18 CA         28.6231   27.7637    3.2069 C.3       5 UNK         0.0716 
     19 N          27.7443   27.4579    2.0725 N.am      5 UNK        -0.4135 
     20 C          27.8711   27.9135    0.8192 C.2       4 UNK         0.5031 
     21 O          28.7492   28.7048    0.4770 O.2       4 UNK        -0.5229 
     22 CA         26.8452   27.4296   -0.2235 C.3       4 UNK         0.0329 
     23 CB         27.5280   27.0109   -1.5361 C.3       4 UNK        -0.2001 
     24 N          26.0164   26.3235    0.2705 N.am      4 UNK        -0.4303 
     25 C          24.8475   26.4740    0.9117 C.2       3 UNK         0.5044 
     26 O          24.3450   27.5761    1.1339 O.2       3 UNK        -0.5152 
     27 CA         24.1343   25.2187    1.4585 C.3       3 UNK         0.0319 
     28 CB         22.6808   25.1207    0.9490 C.3       3 UNK        -0.2001 
     29 N          24.8571   23.9521    1.2710 N.am      3 UNK        -0.4354 
     30 C          25.0968   23.2978    0.1259 C.2       2 UNK         0.4964 
     31 O          24.7091   23.6646   -0.9851 O.2       2 UNK        -0.5047 
     32 CA         25.9348   22.0145    0.2520 C.3       2 UNK         0.0288 
     33 CB         25.0439   20.7685    0.1228 C.3       2 UNK        -0.2113 
     34 N          27.0053   21.9468   -0.7442 N.am      2 UNK        -0.4145 
     35 C          27.9857   22.8463   -0.9073 C.2       1 UNK         0.5006 
     36 O          28.0773   23.8666   -0.2210 O.2       1 UNK        -0.5103 
     37 C          28.7393   29.2768    3.4809 C.2       5 UNK         0.5055 
     38 O          29.8366   29.7658    3.7495 O.2       5 UNK        -0.5220 
     39 N          27.6111   29.9934    3.3697 N.am      6 UNK        -0.4450 
     40 CA         27.5311   31.4480    3.5223 C.3       6 UNK         0.0367 
     41 CB         26.0634   31.8539    3.7319 C.3       6 UNK        -0.1929 
     42 C          28.1368   32.2217    2.3372 C.2       6 UNK         0.5070 
     43 O          28.5829   33.3525    2.5297 O.2       6 UNK        -0.5237 
     44 N          28.1422   31.6147    1.1413 N.am      7 UNK        -0.4739 
     45 CA         28.7723   32.1716   -0.0582 C.3       7 UNK         0.0276 
     46 CB         28.1406   31.5579   -1.3189 C.3       7 UNK        -0.1927 
     47 C          30.2939   31.9586   -0.0396 C.2       7 UNK         0.5013 
     48 O          31.0296   32.8530   -0.4581 O.2       7 UNK        -0.5193 
     49 N          30.7334   30.7951    0.4646 N.am      8 UNK        -0.4253 
     50 CA         32.1360   30.4736    0.7352 C.3       8 UNK         0.0242 
     51 CB         32.2688   28.9825    1.0917 C.3       8 UNK        -0.2000 
     52 C          32.7207   31.3751    1.8372 C.2       8 UNK         0.4948 
     53 O          33.7258   32.0435    1.5898 O.2       8 UNK        -0.5275 
     54 N          32.0324   31.4083    2.9906 N.am      9 UNK        -0.4246 
     55 CA         32.2736   32.2113    4.1960 C.3       9 UNK         0.0261 
     56 CB         32.2287   33.7186    3.8731 C.3       9 UNK        -0.1959 
     57 C          33.5583   31.8440    4.9627 C.2       9 UNK         0.5033 
     58 O          34.5133   31.3172    4.3903 O.2       9 UNK        -0.5390 
     59 N          33.5518   32.1402    6.2716 N.am      10 UNK        -0.4215 
     60 CA         34.6347   32.0098    7.2646 C.3       10 UNK         0.0240 
     61 CB         35.8224   32.9242    6.9046 C.3       10 UNK        -0.1982 
     62 C          35.1260   30.5779    7.5644 C.2       10 UNK         0.4970 
     63 O          35.4987   30.3068    8.7064 O.2       10 UNK        -0.4916 
     64 N          35.1285   29.6971    6.5602 N.am      11 UNK        -0.4279 
     65 CA         35.5796   28.3001    6.6287 C.3       11 UNK         0.1003 
     66 C          34.6961   27.3405    7.4814 C.2       11 UNK         0.5709 
     67 N          33.4969   27.7297    7.8982 N.am      11 UNK        -0.7358 
     68 O          35.1151   26.2240    7.7775 O.2       11 UNK        -0.4999 
     69 C69        35.8603   27.7421    5.2081 C.3       12 UNK        -0.0954 
     70 S70        34.3753   27.6665    4.1451 S.3       12 UNK        -0.2268 
     71 C71        34.1611   25.8676    4.0158 C.3       12 UNK         0.0203 
     72 H72        29.1823   18.0808   -1.4025 H         1 UNK         0.0888 
     73 H73        29.8490   18.2309   -3.0309 H         1 UNK         0.0888 
     74 H74        30.7213   18.9076   -1.6541 H         1 UNK         0.0888 
     75 H75        30.5003   21.1306   -1.4908 H         1 UNK         0.3017 
     76 H76        28.4764   22.5901   -2.9480 H         1 UNK         0.0873 
     77 H77        30.7312   23.4013   -3.0438 H         1 UNK         0.0745 
     78 H78        29.7662   24.5881   -2.2389 H         1 UNK         0.0745 
     79 H79        31.8637   25.8782   -0.4973 H         1 UNK         0.0705 
     80 H80        30.1717   25.5661   -0.2115 H         1 UNK         0.0705 
     81 H81        33.4495   25.7840    1.3835 H         1 UNK         0.1334 
     82 H82        31.8827   25.1814    5.3292 H         1 UNK         0.1417 
     83 H83        29.3936   24.4973    1.9032 H         1 UNK         0.1562 
     84 H84        29.5997   24.6344    5.6821 H         1 UNK         0.0748 
     85 H85        29.2063   23.3385    4.5781 H         1 UNK         0.0748 
     86 H86        28.9907   27.0815    5.2501 H         1 UNK         0.0940 
     87 H87        27.3212   27.4739    4.9439 H         1 UNK         0.0940 
     88 H88        29.6208   27.4244    2.9240 H         1 UNK         0.0703 
     89 H89        27.0133   26.7886    2.2603 H         1 UNK         0.3081 
     90 H90        26.2068   28.2857   -0.4510 H         1 UNK         0.0719 
     91 H91        28.2347   26.1987   -1.3809 H         1 UNK         0.0809 
     92 H92        26.7979   26.6830   -2.2760 H         1 UNK         0.0809 
     93 H93        28.0812   27.8426   -1.9745 H         1 UNK         0.0809 
     94 H94        26.3876   25.3901    0.1355 H         1 UNK         0.2990 
     95 H95        24.0857   25.3619    2.5391 H         1 UNK         0.0690 
     96 H96        22.1705   24.2531    1.3672 H         1 UNK         0.0788 
     97 H97        22.6324   25.0485   -0.1378 H         1 UNK         0.0788 
     98 H98        22.1063   26.0021    1.2372 H         1 UNK         0.0788 
     99 H99        25.2413   23.5600    2.1204 H         1 UNK         0.2993 
    100 H100       26.4112   21.9984    1.2346 H         1 UNK         0.0949 
    101 H101       25.6173   19.8529    0.2703 H         1 UNK         0.0767 
    102 H102       24.2486   20.7767    0.8695 H         1 UNK         0.0767 
    103 H103       24.5704   20.7135   -0.8585 H         1 UNK         0.0767 
    104 H104       27.0002   21.1527   -1.3778 H         1 UNK         0.3013 
    105 H105       26.7539   29.5109    3.1402 H         1 UNK         0.3121 
    106 H106       28.0933   31.7283    4.4160 H         1 UNK         0.0774 
    107 H107       25.4432   31.5881    2.8748 H         1 UNK         0.0815 
    108 H108       25.9743   32.9317    3.8760 H         1 UNK         0.0815 
    109 H109       25.6408   31.3754    4.6155 H         1 UNK         0.0815 
    110 H110       27.8105   30.6624    1.0761 H         1 UNK         0.2987 
    111 H111       28.5882   33.2483   -0.0824 H         1 UNK         0.0949 
    112 H112       28.3157   30.4843   -1.3863 H         1 UNK         0.0806 
    113 H113       27.0638   31.7248   -1.3448 H         1 UNK         0.0806 
    114 H114       28.5596   32.0095   -2.2190 H         1 UNK         0.0806 
    115 H115       30.0440   30.0851    0.6980 H         1 UNK         0.3010 
    116 H116       32.7016   30.6538   -0.1815 H         1 UNK         0.0829 
    117 H117       31.7097   28.7224    1.9910 H         1 UNK         0.0813 
    118 H118       31.9059   28.3488    0.2827 H         1 UNK         0.0813 
    119 H119       33.3113   28.7170    1.2715 H         1 UNK         0.0813 
    120 H120       31.2402   30.7741    3.0779 H         1 UNK         0.3038 
    121 H121       31.4316   31.9866    4.8529 H         1 UNK         0.0769 
    122 H122       32.2631   34.3183    4.7833 H         1 UNK         0.0811 
    123 H123       33.0711   34.0266    3.2530 H         1 UNK         0.0811 
    124 H124       31.3112   33.9827    3.3465 H         1 UNK         0.0811 
    125 H125       32.6986   32.5352    6.6439 H         1 UNK         0.3204 
    126 H126       34.2128   32.3828    8.1994 H         1 UNK         0.0748 
    127 H127       36.5826   32.9036    7.6868 H         1 UNK         0.0771 
    128 H128       36.3054   32.6173    5.9761 H         1 UNK         0.0771 
    129 H129       35.5045   33.9606    6.7900 H         1 UNK         0.0771 
    130 H130       34.8470   30.0343    5.6419 H         1 UNK         0.2980 
    131 H131       36.5412   28.3233    7.1447 H         1 UNK         0.0545 
    132 H132       33.1465   28.6418    7.6563 H         1 UNK         0.3459 
    133 H133       32.9395   27.1025    8.4558 H         1 UNK         0.3459 
    134 H134       36.5919   28.3771    4.7060 H         1 UNK         0.0616 
    135 H135       36.3276   26.7577    5.2698 H         1 UNK         0.0616 
    136 H136       34.2621   25.4166    5.0044 H         1 UNK         0.0634 
    137 H137       34.9626   25.4524    3.4031 H         1 UNK         0.0634 
@<TRIPOS>BOND
     1    1    2 1    
     2    1   72 1    
     3    1   73 1    
     4    1   74 1    
     5    2    3 2    
     6    2    4 am   BACKBONE|DICT|INTERRES
     7    4    5 1    
     8    4   75 1    
     9    5    6 1    
    10    5   35 1    
    11    5   76 1    
    12    6    7 1    
    13    6   77 1    
    14    6   78 1    
    15    7    8 1    
    16    8    9 1    
    17    8   79 1    
    18    8   80 1    
    19    9   10 ar   
    20    9   14 ar   
    21   10   11 ar   
    22   10   81 1    
    23   11   12 ar   
    24   11   71 1    
    25   12   13 ar   
    26   12   82 1    
    27   13   14 ar   
    28   13   15 1    
    29   14   83 1    
    30   15   16 1    
    31   15   84 1    
    32   15   85 1    
    33   16   17 1    
    34   17   18 1    
    35   17   86 1    
    36   17   87 1    
    37   18   19 1    
    38   18   37 1    
    39   18   88 1    
    40   19   20 am   BACKBONE|DICT|INTERRES
    41   19   89 1    
    42   20   21 2    
    43   20   22 1    
    44   22   23 1    
    45   22   24 1    
    46   22   90 1    
    47   23   91 1    
    48   23   92 1    
    49   23   93 1    
    50   24   25 am   BACKBONE|DICT|INTERRES
    51   24   94 1    
    52   25   26 2    
    53   25   27 1    
    54   27   28 1    
    55   27   29 1    
    56   27   95 1    
    57   28   96 1    
    58   28   97 1    
    59   28   98 1    
    60   29   30 am   BACKBONE|DICT|INTERRES
    61   29   99 1    
    62   30   31 2    
    63   30   32 1    
    64   32   33 1    
    65   32   34 1    
    66   32  100 1    
    67   33  101 1    
    68   33  102 1    
    69   33  103 1    
    70   34   35 am   BACKBONE|DICT|INTERRES
    71   34  104 1    
    72   35   36 2    
    73   37   38 2    
    74   37   39 am   BACKBONE|DICT|INTERRES
    75   39   40 1    
    76   39  105 1    
    77   40   41 1    
    78   40   42 1    
    79   40  106 1    
    80   41  107 1    
    81   41  108 1    
    82   41  109 1    
    83   42   43 2    
    84   42   44 am   BACKBONE|DICT|INTERRES
    85   44   45 1    
    86   44  110 1    
    87   45   46 1    
    88   45   47 1    
    89   45  111 1    
    90   46  112 1    
    91   46  113 1    
    92   46  114 1    
    93   47   48 2    
    94   47   49 am   BACKBONE|DICT|INTERRES
    95   49   50 1    
    96   49  115 1    
    97   50   51 1    
    98   50   52 1    
    99   50  116 1    
   100   51  117 1    
   101   51  118 1    
   102   51  119 1    
   103   52   53 2    
   104   52   54 am   BACKBONE|DICT|INTERRES
   105   54   55 1    
   106   54  120 1    
   107   55   56 1    
   108   55   57 1    
   109   55  121 1    
   110   56  122 1    
   111   56  123 1    
   112   56  124 1    
   113   57   58 2    
   114   57   59 am   BACKBONE|DICT|INTERRES
   115   59   60 1    
   116   59  125 1    
   117   60   61 1    
   118   60   62 1    
   119   60  126 1    
   120   61  127 1    
   121   61  128 1    
   122   61  129 1    
   123   62   63 2    
   124   62   64 am   BACKBONE|DICT|INTERRES
   125   64   65 1    
   126   64  130 1    
   127   65   66 1    
   128   65   69 1    
   129   65  131 1    
   130   66   67 am   BACKBONE|DICT|INTERRES
   131   66   68 2    
   132   67  132 1    
   133   67  133 1    
   134   69   70 1    
   135   69  134 1    
   136   69  135 1    
   137   70   71 1    
   138   71  136 1    
   139   71  137 1    
@<TRIPOS>SUBSTRUCTURE
     1 UNK         1 GROUP             0       ****    0 ROOT    
