@<TRIPOS>MOLECULE
3R136
137   139    1
SMALL
USER_CHARGES


@<TRIPOS>ATOM
      1 CA         26.2576   20.7322   -1.4504 C.3       0 UNK        -0.1979 
      2 C          26.9426   21.8663   -0.7038 C.2       0 UNK         0.4864 
      3 O          26.9621   22.9976   -1.1961 O.2       0 UNK        -0.5359 
      4 N          27.4888   21.5796    0.4876 N.am      1 UNK        -0.4318 
      5 CA         28.2354   22.5000    1.3608 C.3       1 UNK         0.0824 
      6 C6         29.0998   21.7359    2.3989 C.3       12 UNK        -0.0944 
      7 S7         30.3268   20.6468    1.5967 S.3       12 UNK        -0.2672 
      8 C8         31.8734   21.0768    2.4718 C.3       12 UNK         0.0333 
      9 C9         32.3614   22.5111    2.2634 C.ar      12 UNK        -0.0807 
     10 C10        33.0185   23.1661    3.3122 C.ar      12 UNK        -0.0894 
     11 C11        33.5005   24.4686    3.1500 C.ar      12 UNK        -0.0804 
     12 C12        33.3101   25.1251    1.9326 C.ar      12 UNK        -0.0824 
     13 C13        32.6431   24.4930    0.8819 C.ar      12 UNK        -0.0762 
     14 C14        32.1943   23.1778    1.0423 C.ar      12 UNK        -0.0782 
     15 C15        32.3775   25.2563   -0.4080 C.3       12 UNK         0.0230 
     16 S16        30.5998   25.4382   -0.7756 S.3       12 UNK        -0.2608 
     17 C17        29.8727   25.9467    0.8208 C.3       12 UNK        -0.0989 
     18 CA         29.8937   27.4671    1.1146 C.3       5 UNK         0.0716 
     19 N          29.0892   28.2072    0.1473 N.am      5 UNK        -0.4135 
     20 C          29.5267   28.8872   -0.9167 C.2       4 UNK         0.5031 
     21 O          30.7165   29.0294   -1.2033 O.2       4 UNK        -0.5229 
     22 CA         28.4288   29.5181   -1.8002 C.3       4 UNK         0.0329 
     23 CB         28.9359   29.9240   -3.2008 C.3       4 UNK        -0.2001 
     24 N          27.2261   28.6738   -1.8875 N.am      4 UNK        -0.4303 
     25 C          27.1395   27.4386   -2.4061 C.2       3 UNK         0.5044 
     26 O          28.0578   26.8628   -2.9909 O.2       3 UNK        -0.5152 
     27 CA         25.8024   26.7074   -2.1903 C.3       3 UNK         0.0319 
     28 CB         25.4683   25.7600   -3.3569 C.3       3 UNK        -0.2001 
     29 N          25.8286   25.9329   -0.9474 N.am      3 UNK        -0.4354 
     30 C          25.7469   26.4597    0.2862 C.2       2 UNK         0.4964 
     31 O          25.6265   27.6668    0.4946 O.2       2 UNK        -0.5047 
     32 CA         25.8258   25.5040    1.4887 C.3       2 UNK         0.0288 
     33 CB         24.4216   25.0913    1.9625 C.3       2 UNK        -0.2113 
     34 N          26.6227   24.3226    1.1710 N.am      2 UNK        -0.4145 
     35 C          27.3227   23.5647    2.0180 C.2       1 UNK         0.5006 
     36 O          27.2840   23.6932    3.2422 O.2       1 UNK        -0.5103 
     37 C          29.2930   27.7323    2.5089 C.2       5 UNK         0.5055 
     38 O          28.1783   28.2558    2.5981 O.2       5 UNK        -0.5220 
     39 N          30.0117   27.3223    3.5659 N.am      6 UNK        -0.4450 
     40 CA         29.5733   27.2777    4.9693 C.3       6 UNK         0.0367 
     41 CB         28.5726   26.1192    5.1745 C.3       6 UNK        -0.1929 
     42 C          29.0552   28.6344    5.4797 C.2       6 UNK         0.5070 
     43 O          29.8646   29.5139    5.7746 O.2       6 UNK        -0.5237 
     44 N          27.7249   28.7981    5.5284 N.am      7 UNK        -0.4739 
     45 CA         27.0090   30.0216    5.9093 C.3       7 UNK         0.0276 
     46 CB         25.4977   29.7419    5.8842 C.3       7 UNK        -0.1927 
     47 C          27.3409   31.2554    5.0468 C.2       7 UNK         0.5013 
     48 O          27.1442   32.3788    5.5110 O.2       7 UNK        -0.5193 
     49 N          27.8727   31.0364    3.8348 N.am      8 UNK        -0.4253 
     50 CA         28.4360   32.0753    2.9665 C.3       8 UNK         0.0242 
     51 CB         28.6208   31.4947    1.5554 C.3       8 UNK        -0.2000 
     52 C          29.7670   32.6696    3.4789 C.2       8 UNK         0.4948 
     53 O          30.2332   33.6508    2.9002 O.2       8 UNK        -0.5275 
     54 N          30.3683   32.0623    4.5167 N.am      9 UNK        -0.4246 
     55 CA         31.6330   32.4209    5.1760 C.3       9 UNK         0.0261 
     56 CB         31.6146   33.8692    5.7095 C.3       9 UNK        -0.1959 
     57 C          32.8912   32.1142    4.3417 C.2       9 UNK         0.5033 
     58 O          33.9896   32.5148    4.7323 O.2       9 UNK        -0.5390 
     59 N          32.7315   31.3615    3.2432 N.am      10 UNK        -0.4215 
     60 CA         33.8035   30.9219    2.3427 C.3       10 UNK         0.0240 
     61 CB         33.1790   30.2312    1.1200 C.3       10 UNK        -0.1982 
     62 C          34.8417   29.9968    3.0059 C.2       10 UNK         0.4970 
     63 O          35.9683   29.9115    2.5161 O.2       10 UNK        -0.4916 
     64 N          34.4511   29.3339    4.1022 N.am      11 UNK        -0.4279 
     65 CA         35.3222   28.4963    4.9392 C.3       11 UNK         0.1003 
     66 C          36.3471   29.2968    5.7969 C.2       11 UNK         0.5709 
     67 N          36.2397   30.6167    5.9144 N.am      11 UNK        -0.7358 
     68 O          37.2636   28.7058    6.3629 O.2       11 UNK        -0.4999 
     69 C69        34.5082   27.5139    5.8268 C.3       12 UNK        -0.0954 
     70 S70        33.2487   26.5745    4.9023 S.3       12 UNK        -0.2268 
     71 C71        34.2312   25.1797    4.2780 C.3       12 UNK         0.0203 
     72 H72        26.3145   19.7908   -0.9041 H         1 UNK         0.0888 
     73 H73        25.2064   20.9699   -1.6102 H         1 UNK         0.0888 
     74 H74        26.7267   20.5887   -2.4234 H         1 UNK         0.0888 
     75 H75        27.4235   20.6330    0.8341 H         1 UNK         0.3017 
     76 H76        28.9266   23.0552    0.7227 H         1 UNK         0.0873 
     77 H77        28.4717   21.1301    3.0546 H         1 UNK         0.0745 
     78 H78        29.6259   22.4400    3.0467 H         1 UNK         0.0745 
     79 H79        31.7277   20.8772    3.5347 H         1 UNK         0.0705 
     80 H80        32.6581   20.3975    2.1367 H         1 UNK         0.0705 
     81 H81        33.1632   22.6578    4.2559 H         1 UNK         0.1334 
     82 H82        33.6691   26.1388    1.8144 H         1 UNK         0.1417 
     83 H83        31.6898   22.6885    0.2205 H         1 UNK         0.1562 
     84 H84        32.8600   24.7386   -1.2380 H         1 UNK         0.0748 
     85 H85        32.8212   26.2526   -0.3688 H         1 UNK         0.0748 
     86 H86        30.3231   25.3731    1.6312 H         1 UNK         0.0940 
     87 H87        28.8375   25.6214    0.7816 H         1 UNK         0.0940 
     88 H88        30.9218   27.8298    1.1091 H         1 UNK         0.0703 
     89 H89        28.1011   28.2286    0.3685 H         1 UNK         0.3081 
     90 H90        28.1209   30.4319   -1.2906 H         1 UNK         0.0719 
     91 H91        29.3376   29.0722   -3.7503 H         1 UNK         0.0809 
     92 H92        28.1395   30.3657   -3.7996 H         1 UNK         0.0809 
     93 H93        29.7334   30.6643   -3.1263 H         1 UNK         0.0809 
     94 H94        26.4151   29.0206   -1.3906 H         1 UNK         0.2990 
     95 H95        25.0052   27.4516   -2.1282 H         1 UNK         0.0690 
     96 H96        24.4822   25.3119   -3.2331 H         1 UNK         0.0788 
     97 H97        26.1945   24.9499   -3.4423 H         1 UNK         0.0788 
     98 H98        25.4640   26.2967   -4.3064 H         1 UNK         0.0788 
     99 H99        25.9512   24.9357   -1.0659 H         1 UNK         0.2993 
    100 H100       26.3219   26.0494    2.2950 H         1 UNK         0.0949 
    101 H101       24.4708   24.4878    2.8690 H         1 UNK         0.0767 
    102 H102       23.8131   25.9678    2.1900 H         1 UNK         0.0767 
    103 H103       23.8949   24.5130    1.2025 H         1 UNK         0.0767 
    104 H104       26.7215   24.0774    0.1874 H         1 UNK         0.3013 
    105 H105       30.9356   26.9447    3.4038 H         1 UNK         0.3121 
    106 H106       30.4534   27.0520    5.5718 H         1 UNK         0.0774 
    107 H107       28.2306   26.0695    6.2091 H         1 UNK         0.0815 
    108 H108       27.6927   26.2087    4.5366 H         1 UNK         0.0815 
    109 H109       29.0388   25.1601    4.9481 H         1 UNK         0.0815 
    110 H110       27.1529   28.0287    5.2110 H         1 UNK         0.2987 
    111 H111       27.2992   30.2630    6.9340 H         1 UNK         0.0949 
    112 H112       25.1561   29.4649    4.8859 H         1 UNK         0.0806 
    113 H113       25.2306   28.9357    6.5678 H         1 UNK         0.0806 
    114 H114       24.9315   30.6230    6.1898 H         1 UNK         0.0806 
    115 H115       27.9608   30.0746    3.5189 H         1 UNK         0.3010 
    116 H116       27.7159   32.8943    2.9092 H         1 UNK         0.0829 
    117 H117       27.6939   31.0615    1.1789 H         1 UNK         0.0813 
    118 H118       28.9278   32.2687    0.8505 H         1 UNK         0.0813 
    119 H119       29.3874   30.7204    1.5409 H         1 UNK         0.0813 
    120 H120       29.9267   31.2309    4.9036 H         1 UNK         0.3038 
    121 H121       31.6968   31.7627    6.0439 H         1 UNK         0.0769 
    122 H122       30.7216   34.0621    6.3041 H         1 UNK         0.0811 
    123 H123       31.6476   34.6018    4.9029 H         1 UNK         0.0811 
    124 H124       32.4763   34.0594    6.3505 H         1 UNK         0.0811 
    125 H125       31.7920   31.0845    3.0035 H         1 UNK         0.3204 
    126 H126       34.3333   31.8140    2.0023 H         1 UNK         0.0748 
    127 H127       32.4708   30.8826    0.6068 H         1 UNK         0.0771 
    128 H128       33.9449   29.9547    0.3938 H         1 UNK         0.0771 
    129 H129       32.6555   29.3179    1.3998 H         1 UNK         0.0771 
    130 H130       33.5067   29.4549    4.4329 H         1 UNK         0.2980 
    131 H131       35.9227   27.8899    4.2589 H         1 UNK         0.0545 
    132 H132       35.4956   31.1256    5.4535 H         1 UNK         0.3459 
    133 H133       36.9156   31.1152    6.4710 H         1 UNK         0.3459 
    134 H134       33.9909   28.0617    6.6166 H         1 UNK         0.0616 
    135 H135       35.1713   26.8083    6.3310 H         1 UNK         0.0616 
    136 H136       34.4499   24.4968    5.1003 H         1 UNK         0.0634 
    137 H137       35.1906   25.5418    3.9062 H         1 UNK         0.0634 
@<TRIPOS>BOND
     1    1    2 1    
     2    1   72 1    
     3    1   73 1    
     4    1   74 1    
     5    2    3 2    
     6    2    4 am   BACKBONE|DICT|INTERRES
     7    4    5 1    
     8    4   75 1    
     9    5    6 1    
    10    5   35 1    
    11    5   76 1    
    12    6    7 1    
    13    6   77 1    
    14    6   78 1    
    15    7    8 1    
    16    8    9 1    
    17    8   79 1    
    18    8   80 1    
    19    9   10 ar   
    20    9   14 ar   
    21   10   11 ar   
    22   10   81 1    
    23   11   12 ar   
    24   11   71 1    
    25   12   13 ar   
    26   12   82 1    
    27   13   14 ar   
    28   13   15 1    
    29   14   83 1    
    30   15   16 1    
    31   15   84 1    
    32   15   85 1    
    33   16   17 1    
    34   17   18 1    
    35   17   86 1    
    36   17   87 1    
    37   18   19 1    
    38   18   37 1    
    39   18   88 1    
    40   19   20 am   BACKBONE|DICT|INTERRES
    41   19   89 1    
    42   20   21 2    
    43   20   22 1    
    44   22   23 1    
    45   22   24 1    
    46   22   90 1    
    47   23   91 1    
    48   23   92 1    
    49   23   93 1    
    50   24   25 am   BACKBONE|DICT|INTERRES
    51   24   94 1    
    52   25   26 2    
    53   25   27 1    
    54   27   28 1    
    55   27   29 1    
    56   27   95 1    
    57   28   96 1    
    58   28   97 1    
    59   28   98 1    
    60   29   30 am   BACKBONE|DICT|INTERRES
    61   29   99 1    
    62   30   31 2    
    63   30   32 1    
    64   32   33 1    
    65   32   34 1    
    66   32  100 1    
    67   33  101 1    
    68   33  102 1    
    69   33  103 1    
    70   34   35 am   BACKBONE|DICT|INTERRES
    71   34  104 1    
    72   35   36 2    
    73   37   38 2    
    74   37   39 am   BACKBONE|DICT|INTERRES
    75   39   40 1    
    76   39  105 1    
    77   40   41 1    
    78   40   42 1    
    79   40  106 1    
    80   41  107 1    
    81   41  108 1    
    82   41  109 1    
    83   42   43 2    
    84   42   44 am   BACKBONE|DICT|INTERRES
    85   44   45 1    
    86   44  110 1    
    87   45   46 1    
    88   45   47 1    
    89   45  111 1    
    90   46  112 1    
    91   46  113 1    
    92   46  114 1    
    93   47   48 2    
    94   47   49 am   BACKBONE|DICT|INTERRES
    95   49   50 1    
    96   49  115 1    
    97   50   51 1    
    98   50   52 1    
    99   50  116 1    
   100   51  117 1    
   101   51  118 1    
   102   51  119 1    
   103   52   53 2    
   104   52   54 am   BACKBONE|DICT|INTERRES
   105   54   55 1    
   106   54  120 1    
   107   55   56 1    
   108   55   57 1    
   109   55  121 1    
   110   56  122 1    
   111   56  123 1    
   112   56  124 1    
   113   57   58 2    
   114   57   59 am   BACKBONE|DICT|INTERRES
   115   59   60 1    
   116   59  125 1    
   117   60   61 1    
   118   60   62 1    
   119   60  126 1    
   120   61  127 1    
   121   61  128 1    
   122   61  129 1    
   123   62   63 2    
   124   62   64 am   BACKBONE|DICT|INTERRES
   125   64   65 1    
   126   64  130 1    
   127   65   66 1    
   128   65   69 1    
   129   65  131 1    
   130   66   67 am   BACKBONE|DICT|INTERRES
   131   66   68 2    
   132   67  132 1    
   133   67  133 1    
   134   69   70 1    
   135   69  134 1    
   136   69  135 1    
   137   70   71 1    
   138   71  136 1    
   139   71  137 1    
@<TRIPOS>SUBSTRUCTURE
     1 UNK         1 GROUP             0       ****    0 ROOT    
