@<TRIPOS>MOLECULE
3R136
137   139    1
SMALL
USER_CHARGES


@<TRIPOS>ATOM
      1 CA         28.9938   20.2686   -2.9964 C.3       0 UNK        -0.1979 
      2 C          28.4434   21.6650   -2.7486 C.2       0 UNK         0.4864 
      3 O          27.6727   22.1753   -3.5644 O.2       0 UNK        -0.5359 
      4 N          28.8258   22.2891   -1.6267 N.am      1 UNK        -0.4318 
      5 CA         28.3947   23.6304   -1.2196 C.3       1 UNK         0.0824 
      6 C6         29.4067   24.3028   -0.2575 C.3       12 UNK        -0.0944 
      7 S7         30.9977   24.6370   -1.0831 S.3       12 UNK        -0.2672 
      8 C8         32.1114   23.4468   -0.2741 C.3       12 UNK         0.0333 
      9 C9         32.4625   23.8787    1.1415 C.ar      12 UNK        -0.0807 
     10 C10        33.3707   24.9221    1.3473 C.ar      12 UNK        -0.0894 
     11 C11        33.7068   25.3266    2.6425 C.ar      12 UNK        -0.0804 
     12 C12        33.1393   24.6662    3.7342 C.ar      12 UNK        -0.0824 
     13 C13        32.2049   23.6460    3.5420 C.ar      12 UNK        -0.0762 
     14 C14        31.8821   23.2424    2.2434 C.ar      12 UNK        -0.0782 
     15 C15        31.5203   23.0097    4.7423 C.3       12 UNK         0.0230 
     16 S16        29.7806   23.5367    4.8942 S.3       12 UNK        -0.2608 
     17 C17        29.9018   25.3636    4.8885 C.3       12 UNK        -0.0989 
     18 CA         29.4023   25.9754    3.5472 C.3       5 UNK         0.0716 
     19 N          28.0126   25.6001    3.2355 N.am      5 UNK        -0.4135 
     20 C          26.9255   25.9323    3.9491 C.2       4 UNK         0.5031 
     21 O          26.9299   26.7045    4.9097 O.2       4 UNK        -0.5229 
     22 CA         25.6193   25.2601    3.5032 C.3       4 UNK         0.0329 
     23 CB         24.4508   25.4520    4.4953 C.3       4 UNK        -0.2001 
     24 N          25.2521   25.6449    2.1381 N.am      4 UNK        -0.4303 
     25 C          24.7746   26.8197    1.6965 C.2       3 UNK         0.5044 
     26 O          24.5926   27.8008    2.4172 O.2       3 UNK        -0.5152 
     27 CA         24.4364   26.9365    0.1909 C.3       3 UNK         0.0319 
     28 CB         25.2285   28.0797   -0.4657 C.3       3 UNK        -0.2001 
     29 N          24.6752   25.7108   -0.5769 N.am      3 UNK        -0.4354 
     30 C          23.9579   24.5804   -0.5040 C.2       2 UNK         0.4964 
     31 O          22.9052   24.4801    0.1258 O.2       2 UNK        -0.5047 
     32 CA         24.5370   23.3364   -1.2081 C.3       2 UNK         0.0288 
     33 CB         23.7697   23.0501   -2.5092 C.3       2 UNK        -0.2113 
     34 N          25.9748   23.4053   -1.5084 N.am      2 UNK        -0.4145 
     35 C          26.9721   23.5781   -0.6275 C.2       1 UNK         0.5006 
     36 O          26.8006   23.7085    0.5877 O.2       1 UNK        -0.5103 
     37 C          29.6290   27.5032    3.4503 C.2       5 UNK         0.5055 
     38 O          30.3470   28.0886    4.2636 O.2       5 UNK        -0.5220 
     39 N          28.9900   28.1318    2.4540 N.am      6 UNK        -0.4450 
     40 CA         28.9907   29.5821    2.2541 C.3       6 UNK         0.0367 
     41 CB         27.7292   29.9756    1.4705 C.3       6 UNK        -0.1929 
     42 C          30.2389   30.1199    1.5331 C.2       6 UNK         0.5070 
     43 O          30.4608   31.3293    1.5825 O.2       6 UNK        -0.5237 
     44 N          30.9933   29.2368    0.8614 N.am      7 UNK        -0.4739 
     45 CA         32.0053   29.5241   -0.1665 C.3       7 UNK         0.0276 
     46 CB         32.7502   28.2266   -0.5181 C.3       7 UNK        -0.1927 
     47 C          33.0105   30.6506    0.1325 C.2       7 UNK         0.5013 
     48 O          33.2347   31.4972   -0.7330 O.2       7 UNK        -0.5193 
     49 N          33.5826   30.6591    1.3424 N.am      8 UNK        -0.4253 
     50 CA         34.5704   31.6486    1.7903 C.3       8 UNK         0.0242 
     51 CB         35.6333   30.9431    2.6538 C.3       8 UNK        -0.2000 
     52 C          33.9214   32.8365    2.5286 C.2       8 UNK         0.4948 
     53 O          34.5447   33.3915    3.4346 O.2       8 UNK        -0.5275 
     54 N          32.6844   33.1924    2.1459 N.am      9 UNK        -0.4246 
     55 CA         31.7861   34.1542    2.7983 C.3       9 UNK         0.0261 
     56 CB         32.3616   35.5870    2.7666 C.3       9 UNK        -0.1959 
     57 C          31.4118   33.6664    4.2097 C.2       9 UNK         0.5033 
     58 O          31.6481   34.3724    5.1919 O.2       9 UNK        -0.5390 
     59 N          30.8605   32.4432    4.2489 N.am      10 UNK        -0.4215 
     60 CA         30.6164   31.5812    5.4120 C.3       10 UNK         0.0240 
     61 CB         29.7657   32.2716    6.4988 C.3       10 UNK        -0.1982 
     62 C          31.9435   31.0267    5.9539 C.2       10 UNK         0.4970 
     63 O          32.6515   31.7202    6.6865 O.2       10 UNK        -0.4916 
     64 N          32.2634   29.7897    5.5568 N.am      11 UNK        -0.4279 
     65 CA         33.4664   29.0544    5.9701 C.3       11 UNK         0.1003 
     66 C          33.5027   28.7713    7.4978 C.2       11 UNK         0.5709 
     67 N          34.6832   28.7829    8.1022 N.am      11 UNK        -0.7358 
     68 O          32.4820   28.4988    8.1279 O.2       11 UNK        -0.4999 
     69 C69        33.6100   27.7319    5.1765 C.3       12 UNK        -0.0954 
     70 S70        33.7857   27.9926    3.3791 S.3       12 UNK        -0.2268 
     71 C71        34.6684   26.4846    2.8645 C.3       12 UNK         0.0203 
     72 H72        29.5456   20.2450   -3.9357 H         1 UNK         0.0888 
     73 H73        29.6656   19.9475   -2.2005 H         1 UNK         0.0888 
     74 H74        28.1773   19.5500   -3.0622 H         1 UNK         0.0888 
     75 H75        29.4371   21.8124   -0.9805 H         1 UNK         0.3017 
     76 H76        28.3376   24.2591   -2.1117 H         1 UNK         0.0873 
     77 H77        29.5584   23.6956    0.6357 H         1 UNK         0.0745 
     78 H78        29.0232   25.2639    0.0899 H         1 UNK         0.0745 
     79 H79        33.0268   23.3687   -0.8624 H         1 UNK         0.0705 
     80 H80        31.6597   22.4540   -0.2821 H         1 UNK         0.0705 
     81 H81        33.8082   25.4224    0.4943 H         1 UNK         0.1334 
     82 H82        33.4006   24.9693    4.7376 H         1 UNK         0.1417 
     83 H83        31.1639   22.4474    2.0957 H         1 UNK         0.1562 
     84 H84        32.0473   23.2549    5.6658 H         1 UNK         0.0748 
     85 H85        31.5565   21.9235    4.6489 H         1 UNK         0.0748 
     86 H86        30.9310   25.6559    5.0919 H         1 UNK         0.0940 
     87 H87        29.3208   25.7508    5.7270 H         1 UNK         0.0940 
     88 H88        30.0146   25.5503    2.7504 H         1 UNK         0.0703 
     89 H89        27.8911   24.9483    2.4717 H         1 UNK         0.3081 
     90 H90        25.8257   24.1890    3.4645 H         1 UNK         0.0719 
     91 H91        24.2051   26.5034    4.6458 H         1 UNK         0.0809 
     92 H92        23.5508   24.9424    4.1513 H         1 UNK         0.0809 
     93 H93        24.7041   25.0400    5.4728 H         1 UNK         0.0809 
     94 H94        25.4374   24.9305    1.4420 H         1 UNK         0.2990 
     95 H95        23.3733   27.1766    0.1243 H         1 UNK         0.0690 
     96 H96        24.9222   28.2295   -1.5012 H         1 UNK         0.0788 
     97 H97        26.3002   27.8802   -0.4590 H         1 UNK         0.0788 
     98 H98        25.0650   29.0244    0.0547 H         1 UNK         0.0788 
     99 H99        25.5103   25.6956   -1.1430 H         1 UNK         0.2993 
    100 H100       24.3896   22.4936   -0.5295 H         1 UNK         0.0949 
    101 H101       24.0992   22.1170   -2.9671 H         1 UNK         0.0767 
    102 H102       22.6991   22.9557   -2.3209 H         1 UNK         0.0767 
    103 H103       23.9038   23.8488   -3.2399 H         1 UNK         0.0767 
    104 H104       26.2436   23.2337   -2.4722 H         1 UNK         0.3013 
    105 H105       28.4036   27.5871    1.8396 H         1 UNK         0.3121 
    106 H106       28.9315   30.0666    3.2284 H         1 UNK         0.0774 
    107 H107       27.6467   31.0601    1.3850 H         1 UNK         0.0815 
    108 H108       27.7420   29.5730    0.4575 H         1 UNK         0.0815 
    109 H109       26.8244   29.6233    1.9667 H         1 UNK         0.0815 
    110 H110       30.7290   28.2667    0.9452 H         1 UNK         0.2987 
    111 H111       31.4515   29.8361   -1.0544 H         1 UNK         0.0949 
    112 H112       33.2691   27.8154    0.3474 H         1 UNK         0.0806 
    113 H113       32.0675   27.4651   -0.8938 H         1 UNK         0.0806 
    114 H114       33.4969   28.3987   -1.2947 H         1 UNK         0.0806 
    115 H115       33.3298   29.9339    2.0016 H         1 UNK         0.3010 
    116 H116       35.0849   32.0653    0.9217 H         1 UNK         0.0829 
    117 H117       36.0519   30.0754    2.1435 H         1 UNK         0.0813 
    118 H118       36.4626   31.6145    2.8797 H         1 UNK         0.0813 
    119 H119       35.2199   30.6086    3.6053 H         1 UNK         0.0813 
    120 H120       32.2492   32.6332    1.4212 H         1 UNK         0.3038 
    121 H121       30.8637   34.1603    2.2150 H         1 UNK         0.0769 
    122 H122       31.6359   36.3027    3.1546 H         1 UNK         0.0811 
    123 H123       32.6079   35.8929    1.7500 H         1 UNK         0.0811 
    124 H124       33.2623   35.6823    3.3734 H         1 UNK         0.0811 
    125 H125       30.7240   31.9967    3.3447 H         1 UNK         0.3204 
    126 H126       30.0302   30.7364    5.0531 H         1 UNK         0.0748 
    127 H127       29.4949   31.5617    7.2812 H         1 UNK         0.0771 
    128 H128       30.2959   33.0916    6.9832 H         1 UNK         0.0771 
    129 H129       28.8391   32.6686    6.0844 H         1 UNK         0.0771 
    130 H130       31.5992   29.2510    5.0045 H         1 UNK         0.2980 
    131 H131       34.3226   29.6883    5.7320 H         1 UNK         0.0545 
    132 H132       35.5284   28.9923    7.5942 H         1 UNK         0.3459 
    133 H133       34.7288   28.5860    9.0897 H         1 UNK         0.3459 
    134 H134       34.4799   27.1753    5.5296 H         1 UNK         0.0616 
    135 H135       32.7416   27.0973    5.3517 H         1 UNK         0.0616 
    136 H136       35.4226   26.2136    3.6044 H         1 UNK         0.0634 
    137 H137       35.2124   26.7038    1.9445 H         1 UNK         0.0634 
@<TRIPOS>BOND
     1    1    2 1    
     2    1   72 1    
     3    1   73 1    
     4    1   74 1    
     5    2    3 2    
     6    2    4 am   BACKBONE|DICT|INTERRES
     7    4    5 1    
     8    4   75 1    
     9    5    6 1    
    10    5   35 1    
    11    5   76 1    
    12    6    7 1    
    13    6   77 1    
    14    6   78 1    
    15    7    8 1    
    16    8    9 1    
    17    8   79 1    
    18    8   80 1    
    19    9   10 ar   
    20    9   14 ar   
    21   10   11 ar   
    22   10   81 1    
    23   11   12 ar   
    24   11   71 1    
    25   12   13 ar   
    26   12   82 1    
    27   13   14 ar   
    28   13   15 1    
    29   14   83 1    
    30   15   16 1    
    31   15   84 1    
    32   15   85 1    
    33   16   17 1    
    34   17   18 1    
    35   17   86 1    
    36   17   87 1    
    37   18   19 1    
    38   18   37 1    
    39   18   88 1    
    40   19   20 am   BACKBONE|DICT|INTERRES
    41   19   89 1    
    42   20   21 2    
    43   20   22 1    
    44   22   23 1    
    45   22   24 1    
    46   22   90 1    
    47   23   91 1    
    48   23   92 1    
    49   23   93 1    
    50   24   25 am   BACKBONE|DICT|INTERRES
    51   24   94 1    
    52   25   26 2    
    53   25   27 1    
    54   27   28 1    
    55   27   29 1    
    56   27   95 1    
    57   28   96 1    
    58   28   97 1    
    59   28   98 1    
    60   29   30 am   BACKBONE|DICT|INTERRES
    61   29   99 1    
    62   30   31 2    
    63   30   32 1    
    64   32   33 1    
    65   32   34 1    
    66   32  100 1    
    67   33  101 1    
    68   33  102 1    
    69   33  103 1    
    70   34   35 am   BACKBONE|DICT|INTERRES
    71   34  104 1    
    72   35   36 2    
    73   37   38 2    
    74   37   39 am   BACKBONE|DICT|INTERRES
    75   39   40 1    
    76   39  105 1    
    77   40   41 1    
    78   40   42 1    
    79   40  106 1    
    80   41  107 1    
    81   41  108 1    
    82   41  109 1    
    83   42   43 2    
    84   42   44 am   BACKBONE|DICT|INTERRES
    85   44   45 1    
    86   44  110 1    
    87   45   46 1    
    88   45   47 1    
    89   45  111 1    
    90   46  112 1    
    91   46  113 1    
    92   46  114 1    
    93   47   48 2    
    94   47   49 am   BACKBONE|DICT|INTERRES
    95   49   50 1    
    96   49  115 1    
    97   50   51 1    
    98   50   52 1    
    99   50  116 1    
   100   51  117 1    
   101   51  118 1    
   102   51  119 1    
   103   52   53 2    
   104   52   54 am   BACKBONE|DICT|INTERRES
   105   54   55 1    
   106   54  120 1    
   107   55   56 1    
   108   55   57 1    
   109   55  121 1    
   110   56  122 1    
   111   56  123 1    
   112   56  124 1    
   113   57   58 2    
   114   57   59 am   BACKBONE|DICT|INTERRES
   115   59   60 1    
   116   59  125 1    
   117   60   61 1    
   118   60   62 1    
   119   60  126 1    
   120   61  127 1    
   121   61  128 1    
   122   61  129 1    
   123   62   63 2    
   124   62   64 am   BACKBONE|DICT|INTERRES
   125   64   65 1    
   126   64  130 1    
   127   65   66 1    
   128   65   69 1    
   129   65  131 1    
   130   66   67 am   BACKBONE|DICT|INTERRES
   131   66   68 2    
   132   67  132 1    
   133   67  133 1    
   134   69   70 1    
   135   69  134 1    
   136   69  135 1    
   137   70   71 1    
   138   71  136 1    
   139   71  137 1    
@<TRIPOS>SUBSTRUCTURE
     1 UNK         1 GROUP             0       ****    0 ROOT    
