@<TRIPOS>MOLECULE
3R136
137   139    1
SMALL
USER_CHARGES


@<TRIPOS>ATOM
      1 CA         30.8069   28.1958    2.9006 C.3       0 UNK        -0.1979 
      2 C          29.9066   27.0228    3.2544 C.2       0 UNK         0.4864 
      3 O          29.2091   27.0770    4.2669 O.2       0 UNK        -0.5359 
      4 N          29.9097   25.9656    2.4300 N.am      1 UNK        -0.4318 
      5 CA         29.0273   24.8010    2.5663 C.3       1 UNK         0.0824 
      6 C6         29.3914   23.6740    1.5699 C.3       12 UNK        -0.0944 
      7 S7         30.9943   22.9001    1.9555 S.3       12 UNK        -0.2672 
      8 C8         31.9754   23.2849    0.4681 C.3       12 UNK         0.0333 
      9 C9         32.4359   24.7363    0.4304 C.ar      12 UNK        -0.0807 
     10 C10        33.2326   25.2407    1.4619 C.ar      12 UNK        -0.0894 
     11 C11        33.6973   26.5616    1.4342 C.ar      12 UNK        -0.0804 
     12 C12        33.3693   27.3636    0.3368 C.ar      12 UNK        -0.0824 
     13 C13        32.5715   26.8792   -0.7045 C.ar      12 UNK        -0.0762 
     14 C14        32.1081   25.5595   -0.6507 C.ar      12 UNK        -0.0782 
     15 C15        32.2787   27.7755   -1.9061 C.3       12 UNK         0.0230 
     16 S16        30.5575   27.6887   -2.5010 S.3       12 UNK        -0.2608 
     17 C17        29.6517   28.5234   -1.1558 C.3       12 UNK        -0.0989 
     18 CA         28.1172   28.4319   -1.3535 C.3       5 UNK         0.0716 
     19 N          27.6714   27.0406   -1.4705 N.am      5 UNK        -0.4135 
     20 C          26.4444   26.6220   -1.8036 C.2       4 UNK         0.5031 
     21 O          25.4736   27.3659   -1.9474 O.2       4 UNK        -0.5229 
     22 CA         26.2781   25.1174   -2.0574 C.3       4 UNK         0.0329 
     23 CB         27.5874   24.3915   -2.4373 C.3       4 UNK        -0.2001 
     24 N          25.6970   24.4846   -0.8778 N.am      4 UNK        -0.4303 
     25 C          24.7358   23.5508   -0.9063 C.2       3 UNK         0.5044 
     26 O          24.2009   23.1588   -1.9449 O.2       3 UNK        -0.5152 
     27 CA         24.3054   22.9068    0.4277 C.3       3 UNK         0.0319 
     28 CB         24.6809   21.4148    0.4500 C.3       3 UNK        -0.2001 
     29 N          24.8842   23.5477    1.6095 N.am      3 UNK        -0.4354 
     30 C          24.4533   24.6943    2.1509 C.2       2 UNK         0.4964 
     31 O          23.4792   25.3245    1.7402 O.2       2 UNK        -0.5047 
     32 CA         25.2608   25.2410    3.3418 C.3       2 UNK         0.0288 
     33 CB         24.6371   24.7784    4.6686 C.3       2 UNK        -0.2113 
     34 N          26.6871   24.8850    3.3284 N.am      2 UNK        -0.4145 
     35 C          27.5589   25.2192    2.3656 C.2       1 UNK         0.5006 
     36 O          27.2447   25.8131    1.3315 O.2       1 UNK        -0.5103 
     37 C          27.3876   29.2354   -0.2591 C.2       5 UNK         0.5055 
     38 O          27.1642   30.4309   -0.4501 O.2       5 UNK        -0.5220 
     39 N          27.0590   28.5852    0.8674 N.am      6 UNK        -0.4450 
     40 CA         26.4123   29.1044    2.0843 C.3       6 UNK         0.0367 
     41 CB         24.9941   29.6269    1.7887 C.3       6 UNK        -0.1929 
     42 C          27.2328   30.1325    2.8895 C.2       6 UNK         0.5070 
     43 O          27.1877   30.0990    4.1190 O.2       6 UNK        -0.5237 
     44 N          27.9794   31.0053    2.2096 N.am      7 UNK        -0.4739 
     45 CA         28.9407   31.9442    2.7750 C.3       7 UNK         0.0276 
     46 CB         28.2468   33.2754    3.1106 C.3       7 UNK        -0.1927 
     47 C          30.0563   32.1390    1.7435 C.2       7 UNK         0.5013 
     48 O          29.7582   32.2817    0.5558 O.2       7 UNK        -0.5193 
     49 N          31.3088   32.1409    2.2104 N.am      8 UNK        -0.4253 
     50 CA         32.5234   32.2914    1.4030 C.3       8 UNK         0.0242 
     51 CB         32.6694   31.1513    0.3719 C.3       8 UNK        -0.2000 
     52 C          33.7497   32.3376    2.3207 C.2       8 UNK         0.4948 
     53 O          34.5692   33.2487    2.2032 O.2       8 UNK        -0.5275 
     54 N          33.8316   31.3649    3.2341 N.am      9 UNK        -0.4246 
     55 CA         34.8449   31.2249    4.2737 C.3       9 UNK         0.0261 
     56 CB         36.1350   30.6195    3.6881 C.3       9 UNK        -0.1959 
     57 C          34.2492   30.3392    5.3747 C.2       9 UNK         0.5033 
     58 O          33.1785   29.7552    5.1736 O.2       9 UNK        -0.5390 
     59 N          34.9448   30.2425    6.5137 N.am      10 UNK        -0.4215 
     60 CA         34.5252   29.5134    7.7169 C.3       10 UNK         0.0240 
     61 CB         35.3289   30.0437    8.9203 C.3       10 UNK        -0.1982 
     62 C          34.6022   27.9751    7.5834 C.2       10 UNK         0.4970 
     63 O          35.1969   27.3131    8.4362 O.2       10 UNK        -0.4916 
     64 N          33.9876   27.4319    6.5274 N.am      11 UNK        -0.4279 
     65 CA         33.8200   25.9884    6.2953 C.3       11 UNK         0.1003 
     66 C          32.6728   25.3435    7.1281 C.2       11 UNK         0.5709 
     67 N          31.8157   26.1087    7.7945 N.am      11 UNK        -0.7358 
     68 O          32.5682   24.1205    7.1826 O.2       11 UNK        -0.4999 
     69 C69        33.6662   25.6597    4.7879 C.3       12 UNK        -0.0954 
     70 S70        35.1744   26.0386    3.8315 S.3       12 UNK        -0.2268 
     71 C71        34.5535   27.1781    2.5456 C.3       12 UNK         0.0203 
     72 H72        31.6420   28.2464    3.5967 H         1 UNK         0.0888 
     73 H73        31.2006   28.1157    1.8899 H         1 UNK         0.0888 
     74 H74        30.2501   29.1287    2.9713 H         1 UNK         0.0888 
     75 H75        30.5347   25.9469    1.6366 H         1 UNK         0.3017 
     76 H76        29.1419   24.4165    3.5822 H         1 UNK         0.0873 
     77 H77        29.3943   24.0501    0.5455 H         1 UNK         0.0745 
     78 H78        28.6440   22.8782    1.5964 H         1 UNK         0.0745 
     79 H79        31.4011   23.0261   -0.4229 H         1 UNK         0.0705 
     80 H80        32.8568   22.6423    0.4590 H         1 UNK         0.0705 
     81 H81        33.4846   24.5826    2.2793 H         1 UNK         0.1334 
     82 H82        33.7545   28.3721    0.2888 H         1 UNK         0.1417 
     83 H83        31.5130   25.1671   -1.4641 H         1 UNK         0.1562 
     84 H84        32.9403   27.4798   -2.7213 H         1 UNK         0.0748 
     85 H85        32.5157   28.8168   -1.6823 H         1 UNK         0.0748 
     86 H86        29.9748   29.5665   -1.1211 H         1 UNK         0.0940 
     87 H87        29.9431   28.0766   -0.2040 H         1 UNK         0.0940 
     88 H88        27.8748   28.9146   -2.3029 H         1 UNK         0.0703 
     89 H89        28.3963   26.3454   -1.3812 H         1 UNK         0.3081 
     90 H90        25.5936   25.0336   -2.9044 H         1 UNK         0.0719 
     91 H91        27.3845   23.3665   -2.7483 H         1 UNK         0.0809 
     92 H92        28.0856   24.8842   -3.2738 H         1 UNK         0.0809 
     93 H93        28.2916   24.3448   -1.6067 H         1 UNK         0.0809 
     94 H94        26.0530   24.8082    0.0157 H         1 UNK         0.2990 
     95 H95        23.2176   22.9841    0.4871 H         1 UNK         0.0690 
     96 H96        24.2281   20.8837   -0.3886 H         1 UNK         0.0788 
     97 H97        24.3310   20.9305    1.3619 H         1 UNK         0.0788 
     98 H98        25.7598   21.2688    0.3830 H         1 UNK         0.0788 
     99 H99        25.6854   23.0948    2.0239 H         1 UNK         0.2993 
    100 H100       25.1904   26.3285    3.2982 H         1 UNK         0.0949 
    101 H101       24.7025   23.6965    4.7909 H         1 UNK         0.0767 
    102 H102       25.1291   25.2446    5.5226 H         1 UNK         0.0767 
    103 H103       23.5812   25.0490    4.7196 H         1 UNK         0.0767 
    104 H104       27.0321   24.4017    4.1457 H         1 UNK         0.3013 
    105 H105       27.2638   27.5874    0.9033 H         1 UNK         0.3121 
    106 H106       26.3101   28.2384    2.7376 H         1 UNK         0.0774 
    107 H107       25.0095   30.5069    1.1453 H         1 UNK         0.0815 
    108 H108       24.4842   29.9092    2.7107 H         1 UNK         0.0815 
    109 H109       24.3863   28.8642    1.3014 H         1 UNK         0.0815 
    110 H110       27.9338   30.9906    1.1916 H         1 UNK         0.2987 
    111 H111       29.3668   31.5197    3.6870 H         1 UNK         0.0949 
    112 H112       28.9566   33.9933    3.5233 H         1 UNK         0.0806 
    113 H113       27.7984   33.7289    2.2256 H         1 UNK         0.0806 
    114 H114       27.4586   33.1359    3.8506 H         1 UNK         0.0806 
    115 H115       31.4551   32.0920    3.2099 H         1 UNK         0.3010 
    116 H116       32.4688   33.2440    0.8718 H         1 UNK         0.0829 
    117 H117       31.9622   31.2609   -0.4500 H         1 UNK         0.0813 
    118 H118       33.6668   31.1387   -0.0702 H         1 UNK         0.0813 
    119 H119       32.4948   30.1793    0.8306 H         1 UNK         0.0813 
    120 H120       33.1021   30.6656    3.3022 H         1 UNK         0.3038 
    121 H121       35.0567   32.2074    4.7009 H         1 UNK         0.0769 
    122 H122       35.9669   29.6205    3.2886 H         1 UNK         0.0811 
    123 H123       36.9154   30.5397    4.4454 H         1 UNK         0.0811 
    124 H124       36.5345   31.2365    2.8831 H         1 UNK         0.0811 
    125 H125       35.8305   30.7242    6.5755 H         1 UNK         0.3204 
    126 H126       33.4750   29.7513    7.8998 H         1 UNK         0.0748 
    127 H127       34.9984   29.5780    9.8500 H         1 UNK         0.0771 
    128 H128       36.3954   29.8408    8.8144 H         1 UNK         0.0771 
    129 H129       35.2014   31.1197    9.0407 H         1 UNK         0.0771 
    130 H130       33.5287   28.0624    5.8755 H         1 UNK         0.2980 
    131 H131       34.7308   25.4930    6.6374 H         1 UNK         0.0545 
    132 H132       31.8840   27.1123    7.7531 H         1 UNK         0.3459 
    133 H133       31.0834   25.6738    8.3329 H         1 UNK         0.3459 
    134 H134       33.4632   24.5964    4.6474 H         1 UNK         0.0616 
    135 H135       32.8106   26.1891    4.3667 H         1 UNK         0.0616 
    136 H136       33.9963   27.9823    3.0265 H         1 UNK         0.0634 
    137 H137       35.4248   27.6418    2.0815 H         1 UNK         0.0634 
@<TRIPOS>BOND
     1    1    2 1    
     2    1   72 1    
     3    1   73 1    
     4    1   74 1    
     5    2    3 2    
     6    2    4 am   BACKBONE|DICT|INTERRES
     7    4    5 1    
     8    4   75 1    
     9    5    6 1    
    10    5   35 1    
    11    5   76 1    
    12    6    7 1    
    13    6   77 1    
    14    6   78 1    
    15    7    8 1    
    16    8    9 1    
    17    8   79 1    
    18    8   80 1    
    19    9   10 ar   
    20    9   14 ar   
    21   10   11 ar   
    22   10   81 1    
    23   11   12 ar   
    24   11   71 1    
    25   12   13 ar   
    26   12   82 1    
    27   13   14 ar   
    28   13   15 1    
    29   14   83 1    
    30   15   16 1    
    31   15   84 1    
    32   15   85 1    
    33   16   17 1    
    34   17   18 1    
    35   17   86 1    
    36   17   87 1    
    37   18   19 1    
    38   18   37 1    
    39   18   88 1    
    40   19   20 am   BACKBONE|DICT|INTERRES
    41   19   89 1    
    42   20   21 2    
    43   20   22 1    
    44   22   23 1    
    45   22   24 1    
    46   22   90 1    
    47   23   91 1    
    48   23   92 1    
    49   23   93 1    
    50   24   25 am   BACKBONE|DICT|INTERRES
    51   24   94 1    
    52   25   26 2    
    53   25   27 1    
    54   27   28 1    
    55   27   29 1    
    56   27   95 1    
    57   28   96 1    
    58   28   97 1    
    59   28   98 1    
    60   29   30 am   BACKBONE|DICT|INTERRES
    61   29   99 1    
    62   30   31 2    
    63   30   32 1    
    64   32   33 1    
    65   32   34 1    
    66   32  100 1    
    67   33  101 1    
    68   33  102 1    
    69   33  103 1    
    70   34   35 am   BACKBONE|DICT|INTERRES
    71   34  104 1    
    72   35   36 2    
    73   37   38 2    
    74   37   39 am   BACKBONE|DICT|INTERRES
    75   39   40 1    
    76   39  105 1    
    77   40   41 1    
    78   40   42 1    
    79   40  106 1    
    80   41  107 1    
    81   41  108 1    
    82   41  109 1    
    83   42   43 2    
    84   42   44 am   BACKBONE|DICT|INTERRES
    85   44   45 1    
    86   44  110 1    
    87   45   46 1    
    88   45   47 1    
    89   45  111 1    
    90   46  112 1    
    91   46  113 1    
    92   46  114 1    
    93   47   48 2    
    94   47   49 am   BACKBONE|DICT|INTERRES
    95   49   50 1    
    96   49  115 1    
    97   50   51 1    
    98   50   52 1    
    99   50  116 1    
   100   51  117 1    
   101   51  118 1    
   102   51  119 1    
   103   52   53 2    
   104   52   54 am   BACKBONE|DICT|INTERRES
   105   54   55 1    
   106   54  120 1    
   107   55   56 1    
   108   55   57 1    
   109   55  121 1    
   110   56  122 1    
   111   56  123 1    
   112   56  124 1    
   113   57   58 2    
   114   57   59 am   BACKBONE|DICT|INTERRES
   115   59   60 1    
   116   59  125 1    
   117   60   61 1    
   118   60   62 1    
   119   60  126 1    
   120   61  127 1    
   121   61  128 1    
   122   61  129 1    
   123   62   63 2    
   124   62   64 am   BACKBONE|DICT|INTERRES
   125   64   65 1    
   126   64  130 1    
   127   65   66 1    
   128   65   69 1    
   129   65  131 1    
   130   66   67 am   BACKBONE|DICT|INTERRES
   131   66   68 2    
   132   67  132 1    
   133   67  133 1    
   134   69   70 1    
   135   69  134 1    
   136   69  135 1    
   137   70   71 1    
   138   71  136 1    
   139   71  137 1    
@<TRIPOS>SUBSTRUCTURE
     1 UNK         1 GROUP             0       ****    0 ROOT    
