@<TRIPOS>MOLECULE
3R136
137   139    1
SMALL
USER_CHARGES


@<TRIPOS>ATOM
      1 CA         30.9421   28.8773   -2.9386 C.3       0 UNK        -0.1979 
      2 C          29.8283   28.1701   -2.1827 C.2       0 UNK         0.4864 
      3 O          28.6747   28.5996   -2.2491 O.2       0 UNK        -0.5359 
      4 N          30.1530   27.0737   -1.4851 N.am      1 UNK        -0.4318 
      5 CA         29.2301   26.2498   -0.6950 C.3       1 UNK         0.0824 
      6 C6         29.9630   25.4823    0.4375 C.3       12 UNK        -0.0944 
      7 S7         31.4446   24.5569   -0.0976 S.3       12 UNK        -0.2672 
      8 C8         31.1902   22.9671    0.7600 C.3       12 UNK         0.0333 
      9 C9         31.1456   23.1038    2.2803 C.ar      12 UNK        -0.0807 
     10 C10        32.1181   23.8475    2.9593 C.ar      12 UNK        -0.0894 
     11 C11        32.0792   23.9671    4.3505 C.ar      12 UNK        -0.0804 
     12 C12        31.0746   23.3155    5.0681 C.ar      12 UNK        -0.0824 
     13 C13        30.0935   22.5724    4.4060 C.ar      12 UNK        -0.0762 
     14 C14        30.1347   22.4684    3.0116 C.ar      12 UNK        -0.0782 
     15 C15        28.9939   21.8847    5.2062 C.3       12 UNK         0.0230 
     16 S16        27.4027   22.7733    5.1250 S.3       12 UNK        -0.2608 
     17 C17        27.8651   24.4557    5.6641 C.3       12 UNK        -0.0989 
     18 CA         27.9152   25.4185    4.4510 C.3       5 UNK         0.0716 
     19 N          26.5692   25.7079    3.9483 N.am      5 UNK        -0.4135 
     20 C          26.2765   26.0900    2.7015 C.2       4 UNK         0.5031 
     21 O          27.1163   26.2260    1.8093 O.2       4 UNK        -0.5229 
     22 CA         24.8074   26.4359    2.4175 C.3       4 UNK         0.0329 
     23 CB         24.5786   27.9472    2.5839 C.3       4 UNK        -0.2001 
     24 N          24.4278   26.0399    1.0611 N.am      4 UNK        -0.4303 
     25 C          24.2159   24.7730    0.6777 C.2       3 UNK         0.5044 
     26 O          24.2397   23.8080    1.4423 O.2       3 UNK        -0.5152 
     27 CA         23.9581   24.5469   -0.8146 C.3       3 UNK         0.0319 
     28 CB         22.6120   25.1474   -1.2636 C.3       3 UNK        -0.2001 
     29 N          25.0644   25.0983   -1.5948 N.am      3 UNK        -0.4354 
     30 C          25.4333   24.6762   -2.8103 C.2       2 UNK         0.4964 
     31 O          24.8371   23.8016   -3.4406 O.2       2 UNK        -0.5047 
     32 CA         26.6726   25.3367   -3.4433 C.3       2 UNK         0.0288 
     33 CB         26.2496   26.3723   -4.4982 C.3       2 UNK        -0.2113 
     34 N          27.5687   25.9826   -2.4794 N.am      2 UNK        -0.4145 
     35 C          28.3383   25.3497   -1.5835 C.2       1 UNK         0.5006 
     36 O          28.3610   24.1231   -1.4637 O.2       1 UNK        -0.5103 
     37 C          28.6496   26.7385    4.7577 C.2       5 UNK         0.5055 
     38 O          28.7925   27.1166    5.9219 O.2       5 UNK        -0.5220 
     39 N          29.0546   27.4337    3.6912 N.am      6 UNK        -0.4450 
     40 CA         29.7313   28.7229    3.7105 C.3       6 UNK         0.0367 
     41 CB         28.6773   29.8444    3.7624 C.3       6 UNK        -0.1929 
     42 C          30.6052   28.7952    2.4548 C.2       6 UNK         0.5070 
     43 O          30.1264   29.2354    1.4101 O.2       6 UNK        -0.5237 
     44 N          31.8422   28.2898    2.5614 N.am      7 UNK        -0.4739 
     45 CA         32.7862   28.1062    1.4498 C.3       7 UNK         0.0276 
     46 CB         34.0771   27.4607    1.9764 C.3       7 UNK        -0.1927 
     47 C          33.1129   29.3841    0.6574 C.2       7 UNK         0.5013 
     48 O          33.1865   29.3289   -0.5701 O.2       7 UNK        -0.5193 
     49 N          33.2900   30.5033    1.3657 N.am      8 UNK        -0.4253 
     50 CA         33.5161   31.8299    0.7983 C.3       8 UNK         0.0242 
     51 CB         35.0212   32.0430    0.5426 C.3       8 UNK        -0.2000 
     52 C          32.9196   32.8490    1.7724 C.2       8 UNK         0.4948 
     53 O          33.6602   33.4961    2.5131 O.2       8 UNK        -0.5275 
     54 N          31.5797   32.8819    1.8423 N.am      9 UNK        -0.4246 
     55 CA         30.7267   33.6115    2.8022 C.3       9 UNK         0.0261 
     56 CB         30.9991   35.1289    2.7870 C.3       9 UNK        -0.1959 
     57 C          30.7666   33.0460    4.2377 C.2       9 UNK         0.5033 
     58 O          29.7686   33.1431    4.9522 O.2       9 UNK        -0.5390 
     59 N          31.8810   32.4143    4.6074 N.am      10 UNK        -0.4215 
     60 CA         32.0780   31.5493    5.7615 C.3       10 UNK         0.0240 
     61 CB         32.5937   32.3835    6.9478 C.3       10 UNK        -0.1982 
     62 C          33.0817   30.4608    5.3503 C.2       10 UNK         0.4970 
     63 O          33.6588   30.5404    4.2614 O.2       10 UNK        -0.4916 
     64 N          33.2737   29.4649    6.2195 N.am      11 UNK        -0.4279 
     65 CA         34.3013   28.4193    6.0633 C.3       11 UNK         0.1003 
     66 C          35.6860   28.8065    6.6623 C.2       11 UNK         0.5709 
     67 N          35.8382   29.9537    7.3141 N.am      11 UNK        -0.7358 
     68 O          36.6489   28.0571    6.5182 O.2       11 UNK        -0.4999 
     69 C69        33.8054   27.0541    6.6025 C.3       12 UNK        -0.0954 
     70 S70        32.4263   26.3948    5.6087 S.3       12 UNK        -0.2268 
     71 C71        33.1177   24.7948    5.0883 C.3       12 UNK         0.0203 
     72 H72        30.6798   28.9784   -3.9912 H         1 UNK         0.0888 
     73 H73        31.0977   29.8738   -2.5259 H         1 UNK         0.0888 
     74 H74        31.8852   28.3346   -2.8738 H         1 UNK         0.0888 
     75 H75        31.1076   26.7428   -1.4946 H         1 UNK         0.3017 
     76 H76        28.5430   26.9386   -0.1996 H         1 UNK         0.0873 
     77 H77        29.2701   24.8134    0.9515 H         1 UNK         0.0745 
     78 H78        30.2868   26.1873    1.2009 H         1 UNK         0.0745 
     79 H79        30.2715   22.5145    0.3828 H         1 UNK         0.0705 
     80 H80        32.0022   22.2899    0.4926 H         1 UNK         0.0705 
     81 H81        32.9021   24.3385    2.4003 H         1 UNK         0.1334 
     82 H82        31.0504   23.4038    6.1459 H         1 UNK         0.1417 
     83 H83        29.3757   21.8929    2.4989 H         1 UNK         0.1562 
     84 H84        29.2881   21.7804    6.2518 H         1 UNK         0.0748 
     85 H85        28.8511   20.8705    4.8304 H         1 UNK         0.0748 
     86 H86        28.8222   24.4200    6.1853 H         1 UNK         0.0940 
     87 H87        27.1438   24.8024    6.4062 H         1 UNK         0.0940 
     88 H88        28.4864   24.9264    3.6599 H         1 UNK         0.0703 
     89 H89        25.8239   25.6464    4.6261 H         1 UNK         0.3081 
     90 H90        24.1696   25.9045    3.1275 H         1 UNK         0.0719 
     91 H91        24.8266   28.2717    3.5955 H         1 UNK         0.0809 
     92 H92        25.1964   28.5277    1.8969 H         1 UNK         0.0809 
     93 H93        23.5365   28.2136    2.4062 H         1 UNK         0.0809 
     94 H94        24.3826   26.7766    0.3733 H         1 UNK         0.2990 
     95 H95        23.9223   23.4664   -0.9726 H         1 UNK         0.0690 
     96 H96        22.3846   24.8796   -2.2956 H         1 UNK         0.0788 
     97 H97        22.6066   26.2356   -1.1943 H         1 UNK         0.0788 
     98 H98        21.7933   24.7747   -0.6465 H         1 UNK         0.0788 
     99 H99        25.6480   25.7795   -1.1301 H         1 UNK         0.2993 
    100 H100       27.2355   24.5463   -3.9448 H         1 UNK         0.0949 
    101 H101       25.6975   27.2002   -4.0513 H         1 UNK         0.0767 
    102 H102       27.1148   26.7867   -5.0164 H         1 UNK         0.0767 
    103 H103       25.6061   25.9207   -5.2547 H         1 UNK         0.0767 
    104 H104       27.6564   26.9952   -2.5283 H         1 UNK         0.3013 
    105 H105       28.8221   27.0712    2.7719 H         1 UNK         0.3121 
    106 H106       30.3763   28.7978    4.5889 H         1 UNK         0.0774 
    107 H107       29.1373   30.8209    3.6291 H         1 UNK         0.0815 
    108 H108       27.9290   29.7316    2.9768 H         1 UNK         0.0815 
    109 H109       28.1575   29.8558    4.7205 H         1 UNK         0.0815 
    110 H110       32.1339   27.9235    3.4574 H         1 UNK         0.2987 
    111 H111       32.3229   27.4096    0.7495 H         1 UNK         0.0949 
    112 H112       34.6103   28.1246    2.6572 H         1 UNK         0.0806 
    113 H113       33.8734   26.5294    2.5027 H         1 UNK         0.0806 
    114 H114       34.7558   27.2259    1.1553 H         1 UNK         0.0806 
    115 H115       33.2641   30.4491    2.3815 H         1 UNK         0.3010 
    116 H116       32.9828   31.9269   -0.1502 H         1 UNK         0.0829 
    117 H117       35.6066   31.9167    1.4544 H         1 UNK         0.0813 
    118 H118       35.2144   33.0476    0.1644 H         1 UNK         0.0813 
    119 H119       35.4005   31.3386   -0.1977 H         1 UNK         0.0813 
    120 H120       31.0755   32.2611    1.2224 H         1 UNK         0.3038 
    121 H121       29.7051   33.4635    2.4483 H         1 UNK         0.0769 
    122 H122       30.9379   35.5338    1.7770 H         1 UNK         0.0811 
    123 H123       31.9819   35.3749    3.1898 H         1 UNK         0.0811 
    124 H124       30.2637   35.6586    3.3939 H         1 UNK         0.0811 
    125 H125       32.6646   32.4240    3.9600 H         1 UNK         0.3204 
    126 H126       31.1335   31.0677    6.0238 H         1 UNK         0.0748 
    127 H127       33.5568   32.8457    6.7264 H         1 UNK         0.0771 
    128 H128       31.8942   33.1804    7.2014 H         1 UNK         0.0771 
    129 H129       32.7181   31.7713    7.8416 H         1 UNK         0.0771 
    130 H130       32.7598   29.4537    7.0884 H         1 UNK         0.2980 
    131 H131       34.4967   28.2814    4.9992 H         1 UNK         0.0545 
    132 H132       36.7442   30.1888    7.6880 H         1 UNK         0.3459 
    133 H133       35.0644   30.5854    7.4343 H         1 UNK         0.3459 
    134 H134       33.4774   27.1450    7.6392 H         1 UNK         0.0616 
    135 H135       34.6148   26.3217    6.6058 H         1 UNK         0.0616 
    136 H136       33.4613   24.2447    5.9657 H         1 UNK         0.0634 
    137 H137       33.9955   24.9646    4.4630 H         1 UNK         0.0634 
@<TRIPOS>BOND
     1    1    2 1    
     2    1   72 1    
     3    1   73 1    
     4    1   74 1    
     5    2    3 2    
     6    2    4 am   BACKBONE|DICT|INTERRES
     7    4    5 1    
     8    4   75 1    
     9    5    6 1    
    10    5   35 1    
    11    5   76 1    
    12    6    7 1    
    13    6   77 1    
    14    6   78 1    
    15    7    8 1    
    16    8    9 1    
    17    8   79 1    
    18    8   80 1    
    19    9   10 ar   
    20    9   14 ar   
    21   10   11 ar   
    22   10   81 1    
    23   11   12 ar   
    24   11   71 1    
    25   12   13 ar   
    26   12   82 1    
    27   13   14 ar   
    28   13   15 1    
    29   14   83 1    
    30   15   16 1    
    31   15   84 1    
    32   15   85 1    
    33   16   17 1    
    34   17   18 1    
    35   17   86 1    
    36   17   87 1    
    37   18   19 1    
    38   18   37 1    
    39   18   88 1    
    40   19   20 am   BACKBONE|DICT|INTERRES
    41   19   89 1    
    42   20   21 2    
    43   20   22 1    
    44   22   23 1    
    45   22   24 1    
    46   22   90 1    
    47   23   91 1    
    48   23   92 1    
    49   23   93 1    
    50   24   25 am   BACKBONE|DICT|INTERRES
    51   24   94 1    
    52   25   26 2    
    53   25   27 1    
    54   27   28 1    
    55   27   29 1    
    56   27   95 1    
    57   28   96 1    
    58   28   97 1    
    59   28   98 1    
    60   29   30 am   BACKBONE|DICT|INTERRES
    61   29   99 1    
    62   30   31 2    
    63   30   32 1    
    64   32   33 1    
    65   32   34 1    
    66   32  100 1    
    67   33  101 1    
    68   33  102 1    
    69   33  103 1    
    70   34   35 am   BACKBONE|DICT|INTERRES
    71   34  104 1    
    72   35   36 2    
    73   37   38 2    
    74   37   39 am   BACKBONE|DICT|INTERRES
    75   39   40 1    
    76   39  105 1    
    77   40   41 1    
    78   40   42 1    
    79   40  106 1    
    80   41  107 1    
    81   41  108 1    
    82   41  109 1    
    83   42   43 2    
    84   42   44 am   BACKBONE|DICT|INTERRES
    85   44   45 1    
    86   44  110 1    
    87   45   46 1    
    88   45   47 1    
    89   45  111 1    
    90   46  112 1    
    91   46  113 1    
    92   46  114 1    
    93   47   48 2    
    94   47   49 am   BACKBONE|DICT|INTERRES
    95   49   50 1    
    96   49  115 1    
    97   50   51 1    
    98   50   52 1    
    99   50  116 1    
   100   51  117 1    
   101   51  118 1    
   102   51  119 1    
   103   52   53 2    
   104   52   54 am   BACKBONE|DICT|INTERRES
   105   54   55 1    
   106   54  120 1    
   107   55   56 1    
   108   55   57 1    
   109   55  121 1    
   110   56  122 1    
   111   56  123 1    
   112   56  124 1    
   113   57   58 2    
   114   57   59 am   BACKBONE|DICT|INTERRES
   115   59   60 1    
   116   59  125 1    
   117   60   61 1    
   118   60   62 1    
   119   60  126 1    
   120   61  127 1    
   121   61  128 1    
   122   61  129 1    
   123   62   63 2    
   124   62   64 am   BACKBONE|DICT|INTERRES
   125   64   65 1    
   126   64  130 1    
   127   65   66 1    
   128   65   69 1    
   129   65  131 1    
   130   66   67 am   BACKBONE|DICT|INTERRES
   131   66   68 2    
   132   67  132 1    
   133   67  133 1    
   134   69   70 1    
   135   69  134 1    
   136   69  135 1    
   137   70   71 1    
   138   71  136 1    
   139   71  137 1    
@<TRIPOS>SUBSTRUCTURE
     1 UNK         1 GROUP             0       ****    0 ROOT    
