@<TRIPOS>MOLECULE
3R136
137   139    1
SMALL
USER_CHARGES


@<TRIPOS>ATOM
      1 CA         34.4699   26.2022   -0.6228 C.3       0 UNK        -0.1979 
      2 C          33.0766   26.8084   -0.5445 C.2       0 UNK         0.4864 
      3 O          32.9291   28.0207   -0.6971 O.2       0 UNK        -0.5359 
      4 N          32.0603   25.9736   -0.2988 N.am      1 UNK        -0.4318 
      5 CA         30.6478   26.3562   -0.2532 C.3       1 UNK         0.0824 
      6 C6         29.8292   25.4044    0.6562 C.3       12 UNK        -0.0944 
      7 S7         29.8886   23.6355    0.1918 S.3       12 UNK        -0.2672 
      8 C8         31.2041   22.9659    1.2646 C.3       12 UNK         0.0333 
      9 C9         30.8560   23.0715    2.7410 C.ar      12 UNK        -0.0807 
     10 C10        31.4887   24.0218    3.5484 C.ar      12 UNK        -0.0894 
     11 C11        31.1584   24.1359    4.9015 C.ar      12 UNK        -0.0804 
     12 C12        30.1836   23.2944    5.4448 C.ar      12 UNK        -0.0824 
     13 C13        29.5365   22.3476    4.6436 C.ar      12 UNK        -0.0762 
     14 C14        29.8926   22.2256    3.2972 C.ar      12 UNK        -0.0782 
     15 C15        28.4193   21.4889    5.2210 C.3       12 UNK         0.0230 
     16 S16        26.7853   21.9448    4.5447 S.3       12 UNK        -0.2608 
     17 C17        26.7246   23.7413    4.8732 C.3       12 UNK        -0.0989 
     18 CA         27.0164   24.5712    3.5886 C.3       5 UNK         0.0716 
     19 N          26.0069   24.3854    2.5428 N.am      5 UNK        -0.4135 
     20 C          24.7237   24.7688    2.5745 C.2       4 UNK         0.5031 
     21 O          24.1821   25.3216    3.5340 O.2       4 UNK        -0.5229 
     22 CA         23.9227   24.5218    1.2799 C.3       4 UNK         0.0329 
     23 CB         22.4509   24.1816    1.5762 C.3       4 UNK        -0.2001 
     24 N          23.9734   25.6656    0.3620 N.am      4 UNK        -0.4303 
     25 C          25.0866   26.1928   -0.1651 C.2       3 UNK         0.5044 
     26 O          26.2195   25.7589    0.0630 O.2       3 UNK        -0.5152 
     27 CA         24.9047   27.4067   -1.0936 C.3       3 UNK         0.0319 
     28 CB         24.3545   28.6232   -0.3297 C.3       3 UNK        -0.2001 
     29 N          26.2011   27.7679   -1.6602 N.am      3 UNK        -0.4354 
     30 C          26.7055   27.2699   -2.7961 C.2       2 UNK         0.4964 
     31 O          26.0467   26.6414   -3.6258 O.2       2 UNK        -0.5047 
     32 CA         28.2089   27.4694   -3.0235 C.3       2 UNK         0.0288 
     33 CB         28.5066   28.8855   -3.5462 C.3       2 UNK        -0.2113 
     34 N          28.9515   27.2281   -1.7836 N.am      2 UNK        -0.4145 
     35 C          30.0552   26.4811   -1.6745 C.2       1 UNK         0.5006 
     36 O          30.5935   25.9064   -2.6261 O.2       1 UNK        -0.5103 
     37 C          27.3051   26.0636    3.8722 C.2       5 UNK         0.5055 
     38 O          27.5248   26.4292    5.0292 O.2       5 UNK        -0.5220 
     39 N          27.3115   26.9078    2.8274 N.am      6 UNK        -0.4450 
     40 CA         27.5707   28.3417    2.9528 C.3       6 UNK         0.0367 
     41 CB         26.2851   29.0672    3.3940 C.3       6 UNK        -0.1929 
     42 C          28.1200   28.9413    1.6527 C.2       6 UNK         0.5070 
     43 O          27.8735   28.4126    0.5665 O.2       6 UNK        -0.5237 
     44 N          28.8288   30.0611    1.8136 N.am      7 UNK        -0.4739 
     45 CA         29.3884   30.9861    0.8271 C.3       7 UNK         0.0276 
     46 CB         30.2376   30.2819   -0.2509 C.3       7 UNK        -0.1927 
     47 C          30.2456   31.9934    1.6099 C.2       7 UNK         0.5013 
     48 O          30.4498   31.8138    2.8170 O.2       7 UNK        -0.5193 
     49 N          30.7426   33.0272    0.9179 N.am      8 UNK        -0.4253 
     50 CA         31.6363   34.0521    1.4638 C.3       8 UNK         0.0242 
     51 CB         31.9385   35.0975    0.3760 C.3       8 UNK        -0.2000 
     52 C          32.9322   33.4355    2.0226 C.2       8 UNK         0.4948 
     53 O          33.7663   32.9674    1.2454 O.2       8 UNK        -0.5275 
     54 N          33.0418   33.4232    3.3585 N.am      9 UNK        -0.4246 
     55 CA         34.1238   32.8398    4.1603 C.3       9 UNK         0.0261 
     56 CB         35.4570   33.5798    3.9141 C.3       9 UNK        -0.1959 
     57 C          34.2573   31.3070    4.0275 C.2       9 UNK         0.5033 
     58 O          35.3576   30.7810    4.2186 O.2       9 UNK        -0.5390 
     59 N          33.1491   30.6015    3.7420 N.am      10 UNK        -0.4215 
     60 CA         33.0951   29.1341    3.7137 C.3       10 UNK         0.0240 
     61 CB         31.7066   28.6605    3.2558 C.3       10 UNK        -0.1982 
     62 C          33.4399   28.5420    5.0902 C.2       10 UNK         0.4970 
     63 O          32.7911   28.8962    6.0769 O.2       10 UNK        -0.4916 
     64 N          34.4638   27.6800    5.1219 N.am      11 UNK        -0.4279 
     65 CA         35.0699   27.1033    6.3359 C.3       11 UNK         0.1003 
     66 C          35.7843   28.1439    7.2563 C.2       11 UNK         0.5709 
     67 N          36.0808   29.3544    6.7944 N.am      11 UNK        -0.7358 
     68 O          36.1137   27.8408    8.4010 O.2       11 UNK        -0.4999 
     69 C69        34.1083   26.1592    7.1186 C.3       12 UNK        -0.0954 
     70 S70        33.5598   24.7299    6.1269 S.3       12 UNK        -0.2268 
     71 C71        31.8377   25.1867    5.7653 C.3       12 UNK         0.0203 
     72 H72        34.8982   26.3750   -1.6098 H         1 UNK         0.0888 
     73 H73        35.1219   26.6646    0.1178 H         1 UNK         0.0888 
     74 H74        34.4589   25.1276   -0.4409 H         1 UNK         0.0888 
     75 H75        32.2316   24.9805   -0.2567 H         1 UNK         0.3017 
     76 H76        30.5901   27.3483    0.1986 H         1 UNK         0.0873 
     77 H77        30.1540   25.5255    1.6887 H         1 UNK         0.0745 
     78 H78        28.7816   25.7043    0.6592 H         1 UNK         0.0745 
     79 H79        31.3623   21.9172    1.0089 H         1 UNK         0.0705 
     80 H80        32.1464   23.4719    1.0533 H         1 UNK         0.0705 
     81 H81        32.2363   24.6792    3.1254 H         1 UNK         0.1334 
     82 H82        29.9124   23.3925    6.4872 H         1 UNK         0.1417 
     83 H83        29.3886   21.5007    2.6720 H         1 UNK         0.1562 
     84 H84        28.3888   21.5710    6.3086 H         1 UNK         0.0748 
     85 H85        28.6166   20.4393    4.9986 H         1 UNK         0.0748 
     86 H86        27.4355   23.9721    5.6677 H         1 UNK         0.0940 
     87 H87        25.7440   23.9918    5.2800 H         1 UNK         0.0940 
     88 H88        27.9461   24.2004    3.1579 H         1 UNK         0.0703 
     89 H89        26.3583   24.0229    1.6667 H         1 UNK         0.3081 
     90 H90        24.3627   23.6636    0.7673 H         1 UNK         0.0719 
     91 H91        21.9244   25.0205    2.0334 H         1 UNK         0.0809 
     92 H92        21.9160   23.9043    0.6677 H         1 UNK         0.0809 
     93 H93        22.3775   23.3380    2.2640 H         1 UNK         0.0809 
     94 H94        23.0874   26.0947    0.1375 H         1 UNK         0.2990 
     95 H95        24.2044   27.1355   -1.8863 H         1 UNK         0.0690 
     96 H96        24.2058   29.4704   -0.9994 H         1 UNK         0.0788 
     97 H97        25.0352   28.9430    0.4584 H         1 UNK         0.0788 
     98 H98        23.3910   28.4076    0.1331 H         1 UNK         0.0788 
     99 H99        26.8338   28.2065   -0.9981 H         1 UNK         0.2993 
    100 H100       28.5145   26.7490   -3.7856 H         1 UNK         0.0949 
    101 H101       27.9852   29.0701   -4.4864 H         1 UNK         0.0767 
    102 H102       28.1891   29.6542   -2.8406 H         1 UNK         0.0767 
    103 H103       29.5720   29.0215   -3.7333 H         1 UNK         0.0767 
    104 H104       28.5513   27.6187   -0.9322 H         1 UNK         0.3013 
    105 H105       27.1289   26.5710    1.8864 H         1 UNK         0.3121 
    106 H106       28.3367   28.4908    3.7176 H         1 UNK         0.0774 
    107 H107       25.9874   28.7659    4.3984 H         1 UNK         0.0815 
    108 H108       26.4217   30.1493    3.4123 H         1 UNK         0.0815 
    109 H109       25.4513   28.8516    2.7268 H         1 UNK         0.0815 
    110 H110       29.0074   30.3897    2.7568 H         1 UNK         0.2987 
    111 H111       28.5644   31.5241    0.3551 H         1 UNK         0.0949 
    112 H112       30.6822   30.9998   -0.9405 H         1 UNK         0.0806 
    113 H113       31.0566   29.7098    0.1795 H         1 UNK         0.0806 
    114 H114       29.6382   29.6145   -0.8614 H         1 UNK         0.0806 
    115 H115       30.5441   33.0884   -0.0700 H         1 UNK         0.3010 
    116 H116       31.1062   34.5569    2.2744 H         1 UNK         0.0829 
    117 H117       31.0284   35.5902    0.0335 H         1 UNK         0.0813 
    118 H118       32.6025   35.8746    0.7572 H         1 UNK         0.0813 
    119 H119       32.4259   34.6506   -0.4916 H         1 UNK         0.0813 
    120 H120       32.2684   33.7973    3.8924 H         1 UNK         0.3038 
    121 H121       33.8469   33.0151    5.2009 H         1 UNK         0.0769 
    122 H122       35.8459   33.3913    2.9130 H         1 UNK         0.0811 
    123 H123       36.2208   33.2579    4.6231 H         1 UNK         0.0811 
    124 H124       35.3421   34.6571    4.0330 H         1 UNK         0.0811 
    125 H125       32.2750   31.0962    3.5977 H         1 UNK         0.3204 
    126 H126       33.8281   28.7915    2.9802 H         1 UNK         0.0748 
    127 H127       31.4825   29.0224    2.2557 H         1 UNK         0.0771 
    128 H128       31.6525   27.5718    3.2206 H         1 UNK         0.0771 
    129 H129       30.9195   29.0086    3.9258 H         1 UNK         0.0771 
    130 H130       34.9478   27.4703    4.2612 H         1 UNK         0.2980 
    131 H131       35.8880   26.4821    5.9701 H         1 UNK         0.0545 
    132 H132       35.8277   29.6393    5.8547 H         1 UNK         0.3459 
    133 H133       36.5562   30.0035    7.4004 H         1 UNK         0.3459 
    134 H134       34.6102   25.7474    7.9957 H         1 UNK         0.0616 
    135 H135       33.2452   26.7055    7.5011 H         1 UNK         0.0616 
    136 H136       31.2977   25.3235    6.7035 H         1 UNK         0.0634 
    137 H137       31.8110   26.1465    5.2508 H         1 UNK         0.0634 
@<TRIPOS>BOND
     1    1    2 1    
     2    1   72 1    
     3    1   73 1    
     4    1   74 1    
     5    2    3 2    
     6    2    4 am   BACKBONE|DICT|INTERRES
     7    4    5 1    
     8    4   75 1    
     9    5    6 1    
    10    5   35 1    
    11    5   76 1    
    12    6    7 1    
    13    6   77 1    
    14    6   78 1    
    15    7    8 1    
    16    8    9 1    
    17    8   79 1    
    18    8   80 1    
    19    9   10 ar   
    20    9   14 ar   
    21   10   11 ar   
    22   10   81 1    
    23   11   12 ar   
    24   11   71 1    
    25   12   13 ar   
    26   12   82 1    
    27   13   14 ar   
    28   13   15 1    
    29   14   83 1    
    30   15   16 1    
    31   15   84 1    
    32   15   85 1    
    33   16   17 1    
    34   17   18 1    
    35   17   86 1    
    36   17   87 1    
    37   18   19 1    
    38   18   37 1    
    39   18   88 1    
    40   19   20 am   BACKBONE|DICT|INTERRES
    41   19   89 1    
    42   20   21 2    
    43   20   22 1    
    44   22   23 1    
    45   22   24 1    
    46   22   90 1    
    47   23   91 1    
    48   23   92 1    
    49   23   93 1    
    50   24   25 am   BACKBONE|DICT|INTERRES
    51   24   94 1    
    52   25   26 2    
    53   25   27 1    
    54   27   28 1    
    55   27   29 1    
    56   27   95 1    
    57   28   96 1    
    58   28   97 1    
    59   28   98 1    
    60   29   30 am   BACKBONE|DICT|INTERRES
    61   29   99 1    
    62   30   31 2    
    63   30   32 1    
    64   32   33 1    
    65   32   34 1    
    66   32  100 1    
    67   33  101 1    
    68   33  102 1    
    69   33  103 1    
    70   34   35 am   BACKBONE|DICT|INTERRES
    71   34  104 1    
    72   35   36 2    
    73   37   38 2    
    74   37   39 am   BACKBONE|DICT|INTERRES
    75   39   40 1    
    76   39  105 1    
    77   40   41 1    
    78   40   42 1    
    79   40  106 1    
    80   41  107 1    
    81   41  108 1    
    82   41  109 1    
    83   42   43 2    
    84   42   44 am   BACKBONE|DICT|INTERRES
    85   44   45 1    
    86   44  110 1    
    87   45   46 1    
    88   45   47 1    
    89   45  111 1    
    90   46  112 1    
    91   46  113 1    
    92   46  114 1    
    93   47   48 2    
    94   47   49 am   BACKBONE|DICT|INTERRES
    95   49   50 1    
    96   49  115 1    
    97   50   51 1    
    98   50   52 1    
    99   50  116 1    
   100   51  117 1    
   101   51  118 1    
   102   51  119 1    
   103   52   53 2    
   104   52   54 am   BACKBONE|DICT|INTERRES
   105   54   55 1    
   106   54  120 1    
   107   55   56 1    
   108   55   57 1    
   109   55  121 1    
   110   56  122 1    
   111   56  123 1    
   112   56  124 1    
   113   57   58 2    
   114   57   59 am   BACKBONE|DICT|INTERRES
   115   59   60 1    
   116   59  125 1    
   117   60   61 1    
   118   60   62 1    
   119   60  126 1    
   120   61  127 1    
   121   61  128 1    
   122   61  129 1    
   123   62   63 2    
   124   62   64 am   BACKBONE|DICT|INTERRES
   125   64   65 1    
   126   64  130 1    
   127   65   66 1    
   128   65   69 1    
   129   65  131 1    
   130   66   67 am   BACKBONE|DICT|INTERRES
   131   66   68 2    
   132   67  132 1    
   133   67  133 1    
   134   69   70 1    
   135   69  134 1    
   136   69  135 1    
   137   70   71 1    
   138   71  136 1    
   139   71  137 1    
@<TRIPOS>SUBSTRUCTURE
     1 UNK         1 GROUP             0       ****    0 ROOT    
