@<TRIPOS>MOLECULE
3R136
137   139    1
SMALL
USER_CHARGES


@<TRIPOS>ATOM
      1 CA         31.1298   18.3818   -2.6288 C.3       0 UNK        -0.1979 
      2 C          30.4572   19.7459   -2.5769 C.2       0 UNK         0.4864 
      3 O          29.5019   19.9848   -3.3175 O.2       0 UNK        -0.5359 
      4 N          30.9525   20.6431   -1.7143 N.am      1 UNK        -0.4318 
      5 CA         30.3901   21.9769   -1.4790 C.3       1 UNK         0.0824 
      6 C6         31.4079   22.8980   -0.7515 C.3       12 UNK        -0.0944 
      7 S7         31.4702   24.5882   -1.4381 S.3       12 UNK        -0.2672 
      8 C8         30.2173   25.5004   -0.4789 C.3       12 UNK         0.0333 
      9 C9         30.3979   25.3719    1.0258 C.ar      12 UNK        -0.0807 
     10 C10        31.5014   25.9470    1.6601 C.ar      12 UNK        -0.0894 
     11 C11        31.6515   25.8511    3.0466 C.ar      12 UNK        -0.0804 
     12 C12        30.6902   25.1732    3.8026 C.ar      12 UNK        -0.0824 
     13 C13        29.5698   24.6147    3.1791 C.ar      12 UNK        -0.0762 
     14 C14        29.4397   24.7035    1.7906 C.ar      12 UNK        -0.0782 
     15 C15        28.4681   23.9633    4.0013 C.3       12 UNK         0.0230 
     16 S16        26.8863   24.8545    3.8213 S.3       12 UNK        -0.2608 
     17 C17        27.2241   26.4356    4.6778 C.3       12 UNK        -0.0989 
     18 CA         27.8957   27.5123    3.7836 C.3       5 UNK         0.0716 
     19 N          27.2262   27.6880    2.4974 N.am      5 UNK        -0.4135 
     20 C          27.7198   28.3628    1.4530 C.2       4 UNK         0.5031 
     21 O          28.8182   28.9279    1.4702 O.2       4 UNK        -0.5229 
     22 CA         26.8419   28.4285    0.1842 C.3       4 UNK         0.0329 
     23 CB         27.6592   28.7482   -1.0802 C.3       4 UNK        -0.2001 
     24 N          26.0568   27.2121   -0.0582 N.am      4 UNK        -0.4303 
     25 C          24.9187   26.8724    0.5574 C.2       3 UNK         0.5044 
     26 O          24.4253   27.5301    1.4734 O.2       3 UNK        -0.5152 
     27 CA         24.2210   25.5786    0.1035 C.3       3 UNK         0.0319 
     28 CB         23.5309   25.7666   -1.2623 C.3       3 UNK        -0.2001 
     29 N          25.0701   24.3783    0.1210 N.am      3 UNK        -0.4354 
     30 C          26.1319   24.0880   -0.6430 C.2       2 UNK         0.4964 
     31 O          26.6130   24.8474   -1.4888 O.2       2 UNK        -0.5047 
     32 CA         26.7488   22.7011   -0.4296 C.3       2 UNK         0.0288 
     33 CB         25.8501   21.5969   -1.0189 C.3       2 UNK        -0.2113 
     34 N          28.0631   22.6549   -1.0655 N.am      2 UNK        -0.4145 
     35 C          29.0698   21.8600   -0.6889 C.2       1 UNK         0.5006 
     36 O          28.9972   21.0686    0.2557 O.2       1 UNK        -0.5103 
     37 C          27.9929   28.8670    4.5048 C.2       5 UNK         0.5055 
     38 O          26.9606   29.4939    4.7527 O.2       5 UNK        -0.5220 
     39 N          29.2302   29.3003    4.7817 N.am      6 UNK        -0.4450 
     40 CA         29.6082   30.6166    5.3121 C.3       6 UNK         0.0367 
     41 CB         29.0322   30.8446    6.7258 C.3       6 UNK        -0.1929 
     42 C          29.3142   31.7837    4.3430 C.2       6 UNK         0.5070 
     43 O          29.2268   32.9300    4.7874 O.2       6 UNK        -0.5237 
     44 N          29.1825   31.4838    3.0422 N.am      7 UNK        -0.4739 
     45 CA         29.0383   32.4629    1.9627 C.3       7 UNK         0.0276 
     46 CB         27.6571   32.3166    1.3037 C.3       7 UNK        -0.1927 
     47 C          30.1619   32.3042    0.9286 C.2       7 UNK         0.5013 
     48 O          30.6921   33.3135    0.4631 O.2       7 UNK        -0.5193 
     49 N          30.5266   31.0548    0.5992 N.am      8 UNK        -0.4253 
     50 CA         31.6350   30.7232   -0.3050 C.3       8 UNK         0.0242 
     51 CB         31.5248   29.2449   -0.7098 C.3       8 UNK        -0.2000 
     52 C          33.0271   31.0076    0.2913 C.2       8 UNK         0.4948 
     53 O          33.9793   31.2087   -0.4638 O.2       8 UNK        -0.5275 
     54 N          33.1180   31.0168    1.6235 N.am      9 UNK        -0.4246 
     55 CA         34.2965   31.2971    2.4362 C.3       9 UNK         0.0261 
     56 CB         35.2525   30.0851    2.4247 C.3       9 UNK        -0.1959 
     57 C          33.7945   31.6377    3.8483 C.2       9 UNK         0.5033 
     58 O          32.5818   31.7484    4.0459 O.2       9 UNK        -0.5390 
     59 N          34.7132   31.7861    4.8129 N.am      10 UNK        -0.4215 
     60 CA         34.3793   31.9687    6.2316 C.3       10 UNK         0.0240 
     61 CB         35.6425   32.3550    7.0186 C.3       10 UNK        -0.1982 
     62 C          33.7101   30.7245    6.8466 C.2       10 UNK         0.4970 
     63 O          32.7535   30.8670    7.6082 O.2       10 UNK        -0.4916 
     64 N          34.2196   29.5392    6.4796 N.am      11 UNK        -0.4279 
     65 CA         33.6832   28.2061    6.8149 C.3       11 UNK         0.1003 
     66 C          33.6894   27.8464    8.3327 C.2       11 UNK         0.5709 
     67 N          34.4691   28.5241    9.1669 N.am      11 UNK        -0.7358 
     68 O          33.0089   26.9165    8.7599 O.2       11 UNK        -0.4999 
     69 C69        32.3168   27.9155    6.1256 C.3       12 UNK        -0.0954 
     70 S70        32.3860   28.1694    4.3185 S.3       12 UNK        -0.2268 
     71 C71        32.8373   26.5123    3.7247 C.3       12 UNK         0.0203 
     72 H72        31.9672   18.3131   -1.9346 H         1 UNK         0.0888 
     73 H73        30.4136   17.6010   -2.3742 H         1 UNK         0.0888 
     74 H74        31.5054   18.1864   -3.6328 H         1 UNK         0.0888 
     75 H75        31.7144   20.3758   -1.1078 H         1 UNK         0.3017 
     76 H76        30.1658   22.3996   -2.4612 H         1 UNK         0.0873 
     77 H77        31.2579   22.9200    0.3294 H         1 UNK         0.0745 
     78 H78        32.4193   22.5075   -0.8762 H         1 UNK         0.0745 
     79 H79        29.2241   25.1719   -0.7816 H         1 UNK         0.0705 
     80 H80        30.2762   26.5541   -0.7503 H         1 UNK         0.0705 
     81 H81        32.2400   26.4747    1.0728 H         1 UNK         0.1334 
     82 H82        30.7965   25.1161    4.8772 H         1 UNK         0.1417 
     83 H83        28.5691   24.2785    1.3137 H         1 UNK         0.1562 
     84 H84        28.7385   23.9108    5.0571 H         1 UNK         0.0748 
     85 H85        28.3353   22.9343    3.6641 H         1 UNK         0.0748 
     86 H86        27.8380   26.2383    5.5586 H         1 UNK         0.0940 
     87 H87        26.2680   26.8029    5.0566 H         1 UNK         0.0940 
     88 H88        28.9102   27.1861    3.5598 H         1 UNK         0.0703 
     89 H89        26.2848   27.3236    2.4258 H         1 UNK         0.3081 
     90 H90        26.1448   29.2544    0.3395 H         1 UNK         0.0719 
     91 H91        28.3827   27.9630   -1.2975 H         1 UNK         0.0809 
     92 H92        27.0130   28.8563   -1.9513 H         1 UNK         0.0809 
     93 H93        28.2083   29.6845   -0.9736 H         1 UNK         0.0809 
     94 H94        26.4106   26.5627   -0.7567 H         1 UNK         0.2990 
     95 H95        23.4335   25.3832    0.8334 H         1 UNK         0.0690 
     96 H96        22.9605   24.8809   -1.5422 H         1 UNK         0.0788 
     97 H97        24.2449   25.9702   -2.0608 H         1 UNK         0.0788 
     98 H98        22.8331   26.6046   -1.2326 H         1 UNK         0.0788 
     99 H99        24.7901   23.6851    0.8017 H         1 UNK         0.2993 
    100 H100       26.8610   22.5450    0.6460 H         1 UNK         0.0949 
    101 H101       25.7112   21.7244   -2.0934 H         1 UNK         0.0767 
    102 H102       26.2773   20.6075   -0.8539 H         1 UNK         0.0767 
    103 H103       24.8615   21.5998   -0.5583 H         1 UNK         0.0767 
    104 H104       28.1877   23.3237   -1.8158 H         1 UNK         0.3013 
    105 H105       30.0125   28.7159    4.5121 H         1 UNK         0.3121 
    106 H106       30.6929   30.5910    5.4156 H         1 UNK         0.0774 
    107 H107       29.4638   31.7373    7.1800 H         1 UNK         0.0815 
    108 H108       27.9508   30.9802    6.7093 H         1 UNK         0.0815 
    109 H109       29.2599   30.0080    7.3861 H         1 UNK         0.0815 
    110 H110       29.2325   30.5106    2.7640 H         1 UNK         0.2987 
    111 H111       29.1152   33.4772    2.3607 H         1 UNK         0.0949 
    112 H112       27.5184   33.0649    0.5223 H         1 UNK         0.0806 
    113 H113       27.5266   31.3386    0.8432 H         1 UNK         0.0806 
    114 H114       26.8565   32.4537    2.0308 H         1 UNK         0.0806 
    115 H115       29.9976   30.2691    0.9718 H         1 UNK         0.3010 
    116 H116       31.5363   31.3336   -1.2052 H         1 UNK         0.0829 
    117 H117       30.6132   29.0575   -1.2750 H         1 UNK         0.0813 
    118 H118       32.3617   28.9435   -1.3414 H         1 UNK         0.0813 
    119 H119       31.5201   28.5923    0.1635 H         1 UNK         0.0813 
    120 H120       32.2740   30.9173    2.1759 H         1 UNK         0.3038 
    121 H121       34.8045   32.1758    2.0343 H         1 UNK         0.0769 
    122 H122       36.1693   30.2909    2.9773 H         1 UNK         0.0811 
    123 H123       35.5512   29.8236    1.4096 H         1 UNK         0.0811 
    124 H124       34.7907   29.2033    2.8689 H         1 UNK         0.0811 
    125 H125       35.6922   31.7150    4.5756 H         1 UNK         0.3204 
    126 H126       33.6680   32.7945    6.3058 H         1 UNK         0.0748 
    127 H127       36.4105   31.5825    6.9629 H         1 UNK         0.0771 
    128 H128       36.0733   33.2840    6.6444 H         1 UNK         0.0771 
    129 H129       35.4116   32.5101    8.0736 H         1 UNK         0.0771 
    130 H130       35.0175   29.5371    5.8631 H         1 UNK         0.2980 
    131 H131       34.3996   27.5058    6.3846 H         1 UNK         0.0545 
    132 H132       34.4771   28.2785   10.1442 H         1 UNK         0.3459 
    133 H133       35.0380   29.2840    8.8310 H         1 UNK         0.3459 
    134 H134       31.5436   28.5649    6.5373 H         1 UNK         0.0616 
    135 H135       31.9855   26.8948    6.3227 H         1 UNK         0.0616 
    136 H136       33.6668   26.6089    3.0226 H         1 UNK         0.0634 
    137 H137       33.2044   25.8912    4.5428 H         1 UNK         0.0634 
@<TRIPOS>BOND
     1    1    2 1    
     2    1   72 1    
     3    1   73 1    
     4    1   74 1    
     5    2    3 2    
     6    2    4 am   BACKBONE|DICT|INTERRES
     7    4    5 1    
     8    4   75 1    
     9    5    6 1    
    10    5   35 1    
    11    5   76 1    
    12    6    7 1    
    13    6   77 1    
    14    6   78 1    
    15    7    8 1    
    16    8    9 1    
    17    8   79 1    
    18    8   80 1    
    19    9   10 ar   
    20    9   14 ar   
    21   10   11 ar   
    22   10   81 1    
    23   11   12 ar   
    24   11   71 1    
    25   12   13 ar   
    26   12   82 1    
    27   13   14 ar   
    28   13   15 1    
    29   14   83 1    
    30   15   16 1    
    31   15   84 1    
    32   15   85 1    
    33   16   17 1    
    34   17   18 1    
    35   17   86 1    
    36   17   87 1    
    37   18   19 1    
    38   18   37 1    
    39   18   88 1    
    40   19   20 am   BACKBONE|DICT|INTERRES
    41   19   89 1    
    42   20   21 2    
    43   20   22 1    
    44   22   23 1    
    45   22   24 1    
    46   22   90 1    
    47   23   91 1    
    48   23   92 1    
    49   23   93 1    
    50   24   25 am   BACKBONE|DICT|INTERRES
    51   24   94 1    
    52   25   26 2    
    53   25   27 1    
    54   27   28 1    
    55   27   29 1    
    56   27   95 1    
    57   28   96 1    
    58   28   97 1    
    59   28   98 1    
    60   29   30 am   BACKBONE|DICT|INTERRES
    61   29   99 1    
    62   30   31 2    
    63   30   32 1    
    64   32   33 1    
    65   32   34 1    
    66   32  100 1    
    67   33  101 1    
    68   33  102 1    
    69   33  103 1    
    70   34   35 am   BACKBONE|DICT|INTERRES
    71   34  104 1    
    72   35   36 2    
    73   37   38 2    
    74   37   39 am   BACKBONE|DICT|INTERRES
    75   39   40 1    
    76   39  105 1    
    77   40   41 1    
    78   40   42 1    
    79   40  106 1    
    80   41  107 1    
    81   41  108 1    
    82   41  109 1    
    83   42   43 2    
    84   42   44 am   BACKBONE|DICT|INTERRES
    85   44   45 1    
    86   44  110 1    
    87   45   46 1    
    88   45   47 1    
    89   45  111 1    
    90   46  112 1    
    91   46  113 1    
    92   46  114 1    
    93   47   48 2    
    94   47   49 am   BACKBONE|DICT|INTERRES
    95   49   50 1    
    96   49  115 1    
    97   50   51 1    
    98   50   52 1    
    99   50  116 1    
   100   51  117 1    
   101   51  118 1    
   102   51  119 1    
   103   52   53 2    
   104   52   54 am   BACKBONE|DICT|INTERRES
   105   54   55 1    
   106   54  120 1    
   107   55   56 1    
   108   55   57 1    
   109   55  121 1    
   110   56  122 1    
   111   56  123 1    
   112   56  124 1    
   113   57   58 2    
   114   57   59 am   BACKBONE|DICT|INTERRES
   115   59   60 1    
   116   59  125 1    
   117   60   61 1    
   118   60   62 1    
   119   60  126 1    
   120   61  127 1    
   121   61  128 1    
   122   61  129 1    
   123   62   63 2    
   124   62   64 am   BACKBONE|DICT|INTERRES
   125   64   65 1    
   126   64  130 1    
   127   65   66 1    
   128   65   69 1    
   129   65  131 1    
   130   66   67 am   BACKBONE|DICT|INTERRES
   131   66   68 2    
   132   67  132 1    
   133   67  133 1    
   134   69   70 1    
   135   69  134 1    
   136   69  135 1    
   137   70   71 1    
   138   71  136 1    
   139   71  137 1    
@<TRIPOS>SUBSTRUCTURE
     1 UNK         1 GROUP             0       ****    0 ROOT    
