@<TRIPOS>MOLECULE
3R136
137   139    1
SMALL
USER_CHARGES


@<TRIPOS>ATOM
      1 CA         27.1650   19.0845    4.8360 C.3       0 UNK        -0.1979 
      2 C          27.0391   19.7600    3.4782 C.2       0 UNK         0.4864 
      3 O          26.0719   19.5087    2.7570 O.2       0 UNK        -0.5359 
      4 N          28.0134   20.6059    3.1217 N.am      1 UNK        -0.4318 
      5 CA         28.0281   21.4055    1.8933 C.3       1 UNK         0.0824 
      6 C6         29.4523   21.8967    1.5287 C.3       12 UNK        -0.0944 
      7 S7         30.3867   22.6357    2.9158 S.3       12 UNK        -0.2672 
      8 C8         32.0969   22.1953    2.4675 C.3       12 UNK         0.0333 
      9 C9         32.6912   23.1776    1.4668 C.ar      12 UNK        -0.0807 
     10 C10        33.6533   24.1029    1.8821 C.ar      12 UNK        -0.0894 
     11 C11        34.2129   25.0031    0.9708 C.ar      12 UNK        -0.0804 
     12 C12        33.7973   24.9794   -0.3633 C.ar      12 UNK        -0.0824 
     13 C13        32.8331   24.0623   -0.7919 C.ar      12 UNK        -0.0762 
     14 C14        32.2961   23.1545    0.1252 C.ar      12 UNK        -0.0782 
     15 C15        32.3935   24.0287   -2.2499 C.3       12 UNK         0.0230 
     16 S16        31.7333   25.6258   -2.8273 S.3       12 UNK        -0.2608 
     17 C17        30.1583   25.7566   -1.9152 C.3       12 UNK        -0.0989 
     18 CA         29.7926   27.2384   -1.6291 C.3       5 UNK         0.0716 
     19 N          28.3460   27.4608   -1.6314 N.am      5 UNK        -0.4135 
     20 C          27.7269   28.4592   -2.2806 C.2       4 UNK         0.5031 
     21 O          28.3017   29.2708   -3.0072 O.2       4 UNK        -0.5229 
     22 CA         26.2014   28.5846   -2.0989 C.3       4 UNK         0.0329 
     23 CB         25.4638   27.8577   -3.2352 C.3       4 UNK        -0.2001 
     24 N          25.7325   28.0662   -0.8139 N.am      4 UNK        -0.4303 
     25 C          26.0252   28.6020    0.3795 C.2       3 UNK         0.5044 
     26 O          26.5916   29.6845    0.5139 O.2       3 UNK        -0.5152 
     27 CA         25.6477   27.7863    1.6316 C.3       3 UNK         0.0319 
     28 CB         24.4537   28.4297    2.3547 C.3       3 UNK        -0.2001 
     29 N          25.3463   26.3750    1.3639 N.am      3 UNK        -0.4354 
     30 C          26.2115   25.4696    0.8863 C.2       2 UNK         0.4964 
     31 O          27.3869   25.7181    0.5953 O.2       2 UNK        -0.5047 
     32 CA         25.6153   24.0896    0.5747 C.3       2 UNK         0.0288 
     33 CB         25.1041   24.0558   -0.8758 C.3       2 UNK        -0.2113 
     34 N          26.5842   23.0121    0.7584 N.am      2 UNK        -0.4145 
     35 C          27.0151   22.5682    1.9464 C.2       1 UNK         0.5006 
     36 O          26.6441   23.0302    3.0300 O.2       1 UNK        -0.5103 
     37 C          30.3874   27.7547   -0.3068 C.2       5 UNK         0.5055 
     38 O          31.2778   28.6064   -0.3317 O.2       5 UNK        -0.5220 
     39 N          29.8542   27.2764    0.8267 N.am      6 UNK        -0.4450 
     40 CA         30.2548   27.6917    2.1714 C.3       6 UNK         0.0367 
     41 CB         30.0481   26.5126    3.1379 C.3       6 UNK        -0.1929 
     42 C          29.4764   28.9502    2.5896 C.2       6 UNK         0.5070 
     43 O          28.5805   28.8757    3.4334 O.2       6 UNK        -0.5237 
     44 N          29.7933   30.0762    1.9393 N.am      7 UNK        -0.4739 
     45 CA         29.1141   31.3660    2.0759 C.3       7 UNK         0.0276 
     46 CB         29.5005   32.2654    0.8872 C.3       7 UNK        -0.1927 
     47 C          29.3540   32.0448    3.4379 C.2       7 UNK         0.5013 
     48 O          30.1235   33.0054    3.5220 O.2       7 UNK        -0.5193 
     49 N          28.6642   31.5381    4.4691 N.am      8 UNK        -0.4253 
     50 CA         28.5701   32.0458    5.8419 C.3       8 UNK         0.0242 
     51 CB         27.7897   33.3792    5.8774 C.3       8 UNK        -0.2000 
     52 C          29.9393   32.1231    6.5375 C.2       8 UNK         0.4948 
     53 O          30.3627   31.1390    7.1442 O.2       8 UNK        -0.5275 
     54 N          30.5998   33.2848    6.4413 N.am      9 UNK        -0.4246 
     55 CA         31.9578   33.5163    6.9334 C.3       9 UNK         0.0261 
     56 CB         32.2396   35.0272    6.9584 C.3       9 UNK        -0.1959 
     57 C          33.0250   32.7809    6.1040 C.2       9 UNK         0.5033 
     58 O          34.0663   32.4202    6.6565 O.2       9 UNK        -0.5390 
     59 N          32.7598   32.5615    4.8072 N.am      10 UNK        -0.4215 
     60 CA         33.6158   31.7652    3.9293 C.3       10 UNK         0.0240 
     61 CB         33.2386   32.0176    2.4620 C.3       10 UNK        -0.1982 
     62 C          33.4811   30.2750    4.2714 C.2       10 UNK         0.4970 
     63 O          32.3600   29.7912    4.4400 O.2       10 UNK        -0.4916 
     64 N          34.6260   29.5877    4.3500 N.am      11 UNK        -0.4279 
     65 CA         34.7528   28.1547    4.6725 C.3       11 UNK         0.1003 
     66 C          34.4108   27.7898    6.1503 C.2       11 UNK         0.5709 
     67 N          34.2875   28.7491    7.0609 N.am      11 UNK        -0.7358 
     68 O          34.2939   26.6147    6.4904 O.2       11 UNK        -0.4999 
     69 C69        34.0363   27.2280    3.6467 C.3       12 UNK        -0.0954 
     70 S70        34.5272   27.5753    1.9212 S.3       12 UNK        -0.2268 
     71 C71        35.2735   25.9975    1.4163 C.3       12 UNK         0.0203 
     72 H72        28.0712   19.3887    5.3597 H         1 UNK         0.0888 
     73 H73        26.3102   19.3394    5.4620 H         1 UNK         0.0888 
     74 H74        27.1900   18.0017    4.7161 H         1 UNK         0.0888 
     75 H75        28.7674   20.8051    3.7642 H         1 UNK         0.3017 
     76 H76        27.7001   20.7480    1.0845 H         1 UNK         0.0873 
     77 H77        29.4203   22.6161    0.7082 H         1 UNK         0.0745 
     78 H78        30.0162   21.0438    1.1488 H         1 UNK         0.0745 
     79 H79        32.6944   22.1811    3.3804 H         1 UNK         0.0705 
     80 H80        32.1395   21.1808    2.0689 H         1 UNK         0.0705 
     81 H81        33.9716   24.1164    2.9149 H         1 UNK         0.1334 
     82 H82        34.2224   25.6786   -1.0706 H         1 UNK         0.1417 
     83 H83        31.5699   22.4274   -0.2076 H         1 UNK         0.1562 
     84 H84        31.6434   23.2544   -2.4188 H         1 UNK         0.0748 
     85 H85        33.2527   23.7625   -2.8670 H         1 UNK         0.0748 
     86 H86        30.1880   25.1574   -1.0027 H         1 UNK         0.0940 
     87 H87        29.3957   25.2948   -2.5446 H         1 UNK         0.0940 
     88 H88        30.2321   27.8464   -2.4231 H         1 UNK         0.0703 
     89 H89        27.8027   26.8625   -1.0192 H         1 UNK         0.3081 
     90 H90        25.9489   29.6461   -2.1477 H         1 UNK         0.0719 
     91 H91        25.7742   28.2409   -4.2084 H         1 UNK         0.0809 
     92 H92        25.6645   26.7855   -3.2285 H         1 UNK         0.0809 
     93 H93        24.3852   27.9991   -3.1632 H         1 UNK         0.0809 
     94 H94        25.2283   27.1927   -0.8305 H         1 UNK         0.2990 
     95 H95        26.5069   27.8114    2.3024 H         1 UNK         0.0690 
     96 H96        24.6641   29.4710    2.6035 H         1 UNK         0.0788 
     97 H97        24.2316   27.9156    3.2901 H         1 UNK         0.0788 
     98 H98        23.5532   28.4168    1.7393 H         1 UNK         0.0788 
     99 H99        24.3963   26.0836    1.5476 H         1 UNK         0.2993 
    100 H100       24.7747   23.9066    1.2483 H         1 UNK         0.0949 
    101 H101       24.6553   23.0914   -1.1154 H         1 UNK         0.0767 
    102 H102       24.3377   24.8140   -1.0423 H         1 UNK         0.0767 
    103 H103       25.9062   24.2390   -1.5926 H         1 UNK         0.0767 
    104 H104       26.9628   22.6036   -0.0833 H         1 UNK         0.3013 
    105 H105       29.0736   26.6270    0.7744 H         1 UNK         0.3121 
    106 H106       31.3170   27.9445    2.1760 H         1 UNK         0.0774 
    107 H107       30.3104   26.7954    4.1581 H         1 UNK         0.0815 
    108 H108       29.0125   26.1694    3.1459 H         1 UNK         0.0815 
    109 H109       30.6803   25.6681    2.8634 H         1 UNK         0.0815 
    110 H110       30.5239   30.0172    1.2403 H         1 UNK         0.2987 
    111 H111       28.0398   31.1883    2.0047 H         1 UNK         0.0949 
    112 H112       28.9960   33.2304    0.9505 H         1 UNK         0.0806 
    113 H113       30.5716   32.4619    0.8489 H         1 UNK         0.0806 
    114 H114       29.2086   31.8113   -0.0602 H         1 UNK         0.0806 
    115 H115       28.1984   30.6517    4.2953 H         1 UNK         0.3010 
    116 H116       27.9851   31.3125    6.3994 H         1 UNK         0.0829 
    117 H117       28.2423   34.1476    5.2500 H         1 UNK         0.0813 
    118 H118       26.7655   33.2387    5.5315 H         1 UNK         0.0813 
    119 H119       27.7324   33.7733    6.8930 H         1 UNK         0.0813 
    120 H120       30.1828   34.0191    5.8865 H         1 UNK         0.3038 
    121 H121       32.0178   33.1395    7.9569 H         1 UNK         0.0769 
    122 H122       32.1807   35.4664    5.9617 H         1 UNK         0.0811 
    123 H123       33.2392   35.2302    7.3454 H         1 UNK         0.0811 
    124 H124       31.5324   35.5527    7.6005 H         1 UNK         0.0811 
    125 H125       31.8508   32.8277    4.4370 H         1 UNK         0.3204 
    126 H126       34.6502   32.0837    4.0767 H         1 UNK         0.0748 
    127 H127       33.9285   31.5059    1.7897 H         1 UNK         0.0771 
    128 H128       32.2390   31.6466    2.2407 H         1 UNK         0.0771 
    129 H129       33.2675   33.0793    2.2164 H         1 UNK         0.0771 
    130 H130       35.4979   30.0746    4.2021 H         1 UNK         0.2980 
    131 H131       35.8197   27.9452    4.5896 H         1 UNK         0.0545 
    132 H132       34.0787   28.4984    8.0141 H         1 UNK         0.3459 
    133 H133       34.3776   29.7197    6.8018 H         1 UNK         0.3459 
    134 H134       32.9542   27.3255    3.7269 H         1 UNK         0.0616 
    135 H135       34.2540   26.1853    3.8763 H         1 UNK         0.0616 
    136 H136       35.9659   26.1883    0.5950 H         1 UNK         0.0634 
    137 H137       35.8752   25.5877    2.2290 H         1 UNK         0.0634 
@<TRIPOS>BOND
     1    1    2 1    
     2    1   72 1    
     3    1   73 1    
     4    1   74 1    
     5    2    3 2    
     6    2    4 am   BACKBONE|DICT|INTERRES
     7    4    5 1    
     8    4   75 1    
     9    5    6 1    
    10    5   35 1    
    11    5   76 1    
    12    6    7 1    
    13    6   77 1    
    14    6   78 1    
    15    7    8 1    
    16    8    9 1    
    17    8   79 1    
    18    8   80 1    
    19    9   10 ar   
    20    9   14 ar   
    21   10   11 ar   
    22   10   81 1    
    23   11   12 ar   
    24   11   71 1    
    25   12   13 ar   
    26   12   82 1    
    27   13   14 ar   
    28   13   15 1    
    29   14   83 1    
    30   15   16 1    
    31   15   84 1    
    32   15   85 1    
    33   16   17 1    
    34   17   18 1    
    35   17   86 1    
    36   17   87 1    
    37   18   19 1    
    38   18   37 1    
    39   18   88 1    
    40   19   20 am   BACKBONE|DICT|INTERRES
    41   19   89 1    
    42   20   21 2    
    43   20   22 1    
    44   22   23 1    
    45   22   24 1    
    46   22   90 1    
    47   23   91 1    
    48   23   92 1    
    49   23   93 1    
    50   24   25 am   BACKBONE|DICT|INTERRES
    51   24   94 1    
    52   25   26 2    
    53   25   27 1    
    54   27   28 1    
    55   27   29 1    
    56   27   95 1    
    57   28   96 1    
    58   28   97 1    
    59   28   98 1    
    60   29   30 am   BACKBONE|DICT|INTERRES
    61   29   99 1    
    62   30   31 2    
    63   30   32 1    
    64   32   33 1    
    65   32   34 1    
    66   32  100 1    
    67   33  101 1    
    68   33  102 1    
    69   33  103 1    
    70   34   35 am   BACKBONE|DICT|INTERRES
    71   34  104 1    
    72   35   36 2    
    73   37   38 2    
    74   37   39 am   BACKBONE|DICT|INTERRES
    75   39   40 1    
    76   39  105 1    
    77   40   41 1    
    78   40   42 1    
    79   40  106 1    
    80   41  107 1    
    81   41  108 1    
    82   41  109 1    
    83   42   43 2    
    84   42   44 am   BACKBONE|DICT|INTERRES
    85   44   45 1    
    86   44  110 1    
    87   45   46 1    
    88   45   47 1    
    89   45  111 1    
    90   46  112 1    
    91   46  113 1    
    92   46  114 1    
    93   47   48 2    
    94   47   49 am   BACKBONE|DICT|INTERRES
    95   49   50 1    
    96   49  115 1    
    97   50   51 1    
    98   50   52 1    
    99   50  116 1    
   100   51  117 1    
   101   51  118 1    
   102   51  119 1    
   103   52   53 2    
   104   52   54 am   BACKBONE|DICT|INTERRES
   105   54   55 1    
   106   54  120 1    
   107   55   56 1    
   108   55   57 1    
   109   55  121 1    
   110   56  122 1    
   111   56  123 1    
   112   56  124 1    
   113   57   58 2    
   114   57   59 am   BACKBONE|DICT|INTERRES
   115   59   60 1    
   116   59  125 1    
   117   60   61 1    
   118   60   62 1    
   119   60  126 1    
   120   61  127 1    
   121   61  128 1    
   122   61  129 1    
   123   62   63 2    
   124   62   64 am   BACKBONE|DICT|INTERRES
   125   64   65 1    
   126   64  130 1    
   127   65   66 1    
   128   65   69 1    
   129   65  131 1    
   130   66   67 am   BACKBONE|DICT|INTERRES
   131   66   68 2    
   132   67  132 1    
   133   67  133 1    
   134   69   70 1    
   135   69  134 1    
   136   69  135 1    
   137   70   71 1    
   138   71  136 1    
   139   71  137 1    
@<TRIPOS>SUBSTRUCTURE
     1 UNK         1 GROUP             0       ****    0 ROOT    
