@<TRIPOS>MOLECULE
3R136
137   139    1
SMALL
USER_CHARGES


@<TRIPOS>ATOM
      1 CA         25.5842   22.4717    2.5514 C.3       0 UNK        -0.1979 
      2 C          26.5698   21.8151    1.5973 C.2       0 UNK         0.4864 
      3 O          26.4698   20.6115    1.3561 O.2       0 UNK        -0.5359 
      4 N          27.5217   22.5896    1.0572 N.am      1 UNK        -0.4318 
      5 CA         28.4825   22.1274    0.0476 C.3       1 UNK         0.0824 
      6 C6         29.7914   22.9566    0.0441 C.3       12 UNK        -0.0944 
      7 S7         29.5674   24.7385   -0.2823 S.3       12 UNK        -0.2672 
      8 C8         31.1807   25.3906    0.2802 C.3       12 UNK         0.0333 
      9 C9         31.3326   25.6232    1.7872 C.ar      12 UNK        -0.0807 
     10 C10        32.5244   26.1889    2.2491 C.ar      12 UNK        -0.0894 
     11 C11        32.7251   26.4334    3.6105 C.ar      12 UNK        -0.0804 
     12 C12        31.6985   26.1505    4.5164 C.ar      12 UNK        -0.0824 
     13 C13        30.4921   25.5921    4.0793 C.ar      12 UNK        -0.0762 
     14 C14        30.3383   25.2987    2.7190 C.ar      12 UNK        -0.0782 
     15 C15        29.3960   25.2996    5.1102 C.3       12 UNK         0.0230 
     16 S16        27.6918   25.1181    4.4559 S.3       12 UNK        -0.2608 
     17 C17        27.3972   26.7362    3.6664 C.3       12 UNK        -0.0989 
     18 CA         27.0046   26.5782    2.1729 C.3       5 UNK         0.0716 
     19 N          25.5894   26.2611    1.9883 N.am      5 UNK        -0.4135 
     20 C          25.1051   25.6606    0.8954 C.2       4 UNK         0.5031 
     21 O          25.8229   25.1616    0.0194 O.2       4 UNK        -0.5229 
     22 CA         23.5754   25.5982    0.7573 C.3       4 UNK         0.0329 
     23 CB         22.9263   26.9948    0.8157 C.3       4 UNK        -0.2001 
     24 N          23.2847   24.9787   -0.5275 N.am      4 UNK        -0.4303 
     25 C          22.2114   24.2592   -0.8687 C.2       3 UNK         0.5044 
     26 O          21.2317   24.0960   -0.1408 O.2       3 UNK        -0.5152 
     27 CA         22.2461   23.6009   -2.2650 C.3       3 UNK         0.0319 
     28 CB         21.3823   24.3967   -3.2569 C.3       3 UNK        -0.2001 
     29 N          23.6085   23.4790   -2.8034 N.am      3 UNK        -0.4354 
     30 C          24.5388   22.6431   -2.3199 C.2       2 UNK         0.4964 
     31 O          24.2940   21.7789   -1.4760 O.2       2 UNK        -0.5047 
     32 CA         25.9852   22.8234   -2.8110 C.3       2 UNK         0.0288 
     33 CB         26.2210   24.1015   -3.6439 C.3       2 UNK        -0.2113 
     34 N          26.8404   22.8686   -1.6282 N.am      2 UNK        -0.4145 
     35 C          27.8437   22.0239   -1.3553 C.2       1 UNK         0.5006 
     36 O          28.2564   21.1702   -2.1434 O.2       1 UNK        -0.5103 
     37 C          27.3406   27.8457    1.3713 C.2       5 UNK         0.5055 
     38 O          26.9362   28.9401    1.7690 O.2       5 UNK        -0.5220 
     39 N          28.1163   27.6863    0.2920 N.am      6 UNK        -0.4450 
     40 CA         28.7405   28.7722   -0.4680 C.3       6 UNK         0.0367 
     41 CB         28.9842   28.2957   -1.9121 C.3       6 UNK        -0.1929 
     42 C          30.0330   29.2290    0.2383 C.2       6 UNK         0.5070 
     43 O          31.1215   29.1510   -0.3337 O.2       6 UNK        -0.5237 
     44 N          29.8843   29.6350    1.5033 N.am      7 UNK        -0.4739 
     45 CA         30.9655   29.9930    2.4154 C.3       7 UNK         0.0276 
     46 CB         30.4209   29.9453    3.8532 C.3       7 UNK        -0.1927 
     47 C          31.5747   31.3702    2.1076 C.2       7 UNK         0.5013 
     48 O          30.9345   32.2138    1.4741 O.2       7 UNK        -0.5193 
     49 N          32.7915   31.5736    2.6159 N.am      8 UNK        -0.4253 
     50 CA         33.5330   32.8314    2.6197 C.3       8 UNK         0.0242 
     51 CB         34.7385   32.6939    1.6722 C.3       8 UNK        -0.2000 
     52 C          33.9901   33.1127    4.0583 C.2       8 UNK         0.4948 
     53 O          33.8075   32.2642    4.9343 O.2       8 UNK        -0.5275 
     54 N          34.6198   34.2747    4.2835 N.am      9 UNK        -0.4246 
     55 CA         35.1470   34.7045    5.5892 C.3       9 UNK         0.0261 
     56 CB         35.7681   36.1041    5.4530 C.3       9 UNK        -0.1959 
     57 C          36.1570   33.7275    6.2263 C.2       9 UNK         0.5033 
     58 O          36.2294   33.6448    7.4533 O.2       9 UNK        -0.5390 
     59 N          36.8818   32.9759    5.3858 N.am      10 UNK        -0.4215 
     60 CA         37.7933   31.8991    5.7794 C.3       10 UNK         0.0240 
     61 CB         38.6116   31.4672    4.5511 C.3       10 UNK        -0.1982 
     62 C          37.0965   30.6778    6.4137 C.2       10 UNK         0.4970 
     63 O          37.7695   29.9096    7.1023 O.2       10 UNK        -0.4916 
     64 N          35.7871   30.5073    6.1802 N.am      11 UNK        -0.4279 
     65 CA         34.9724   29.4226    6.7524 C.3       11 UNK         0.1003 
     66 C          34.5841   29.6442    8.2439 C.2       11 UNK         0.5709 
     67 N          34.8226   30.8111    8.8338 N.am      11 UNK        -0.7358 
     68 O          34.0652   28.7323    8.8834 O.2       11 UNK        -0.4999 
     69 C69        33.7167   29.1176    5.8904 C.3       12 UNK        -0.0954 
     70 S70        34.1198   28.7778    4.1419 S.3       12 UNK        -0.2268 
     71 C71        34.0690   26.9614    4.0945 C.3       12 UNK         0.0203 
     72 H72        24.5952   22.5136    2.0957 H         1 UNK         0.0888 
     73 H73        25.5126   21.8964    3.4740 H         1 UNK         0.0888 
     74 H74        25.8843   23.4844    2.8125 H         1 UNK         0.0888 
     75 H75        27.5438   23.5770    1.2636 H         1 UNK         0.3017 
     76 H76        28.7707   21.1083    0.3161 H         1 UNK         0.0873 
     77 H77        30.4899   22.5571   -0.6937 H         1 UNK         0.0745 
     78 H78        30.2885   22.8400    1.0084 H         1 UNK         0.0745 
     79 H79        31.9719   24.7217   -0.0616 H         1 UNK         0.0705 
     80 H80        31.3463   26.3410   -0.2285 H         1 UNK         0.0705 
     81 H81        33.3101   26.4266    1.5446 H         1 UNK         0.1334 
     82 H82        31.8461   26.3504    5.5689 H         1 UNK         0.1417 
     83 H83        29.4367   24.8122    2.3916 H         1 UNK         0.1562 
     84 H84        29.3841   26.0912    5.8612 H         1 UNK         0.0748 
     85 H85        29.6584   24.3813    5.6369 H         1 UNK         0.0748 
     86 H86        28.3033   27.3358    3.7719 H         1 UNK         0.0940 
     87 H87        26.6266   27.2738    4.2217 H         1 UNK         0.0940 
     88 H88        27.5907   25.7631    1.7516 H         1 UNK         0.0703 
     89 H89        24.9493   26.6586    2.6600 H         1 UNK         0.3081 
     90 H90        23.1857   24.9700    1.5608 H         1 UNK         0.0719 
     91 H91        23.3456   27.6646    0.0635 H         1 UNK         0.0809 
     92 H92        21.8508   26.9380    0.6465 H         1 UNK         0.0809 
     93 H93        23.0692   27.4635    1.7896 H         1 UNK         0.0809 
     94 H94        24.0712   24.9992   -1.1638 H         1 UNK         0.2990 
     95 H95        21.8224   22.5991   -2.1671 H         1 UNK         0.0690 
     96 H96        21.3462   23.9099   -4.2317 H         1 UNK         0.0788 
     97 H97        21.7595   25.4102   -3.3997 H         1 UNK         0.0788 
     98 H98        20.3547   24.4791   -2.8997 H         1 UNK         0.0788 
     99 H99        23.8819   24.1493   -3.5081 H         1 UNK         0.2993 
    100 H100       26.2206   21.9537   -3.4279 H         1 UNK         0.0949 
    101 H101       25.9682   25.0053   -3.0871 H         1 UNK         0.0767 
    102 H102       27.2685   24.1837   -3.9354 H         1 UNK         0.0767 
    103 H103       25.6378   24.0932   -4.5656 H         1 UNK         0.0767 
    104 H104       26.5630   23.5368   -0.9153 H         1 UNK         0.3013 
    105 H105       28.4109   26.7501    0.0418 H         1 UNK         0.3121 
    106 H106       28.0630   29.6281   -0.5060 H         1 UNK         0.0774 
    107 H107       29.6685   27.4473   -1.9498 H         1 UNK         0.0815 
    108 H108       29.4190   29.0925   -2.5167 H         1 UNK         0.0815 
    109 H109       28.0530   27.9954   -2.3927 H         1 UNK         0.0815 
    110 H110       28.9412   29.6913    1.8687 H         1 UNK         0.2987 
    111 H111       31.7530   29.2425    2.3145 H         1 UNK         0.0949 
    112 H112       30.1282   28.9325    4.1296 H         1 UNK         0.0806 
    113 H113       31.1722   30.2672    4.5736 H         1 UNK         0.0806 
    114 H114       29.5548   30.5960    3.9793 H         1 UNK         0.0806 
    115 H115       33.1918   30.8561    3.2093 H         1 UNK         0.3010 
    116 H116       32.8963   33.6572    2.2951 H         1 UNK         0.0829 
    117 H117       35.3047   33.6235    1.6067 H         1 UNK         0.0813 
    118 H118       35.4246   31.9123    2.0022 H         1 UNK         0.0813 
    119 H119       34.4157   32.4453    0.6609 H         1 UNK         0.0813 
    120 H120       34.7350   34.9214    3.5158 H         1 UNK         0.3038 
    121 H121       34.2977   34.7736    6.2721 H         1 UNK         0.0769 
    122 H122       36.6036   36.1095    4.7518 H         1 UNK         0.0811 
    123 H123       36.1466   36.4582    6.4131 H         1 UNK         0.0811 
    124 H124       35.0345   36.8334    5.1090 H         1 UNK         0.0811 
    125 H125       36.7531   33.1209    4.3954 H         1 UNK         0.3204 
    126 H126       38.4813   32.3018    6.5258 H         1 UNK         0.0748 
    127 H127       39.3300   30.6891    4.8137 H         1 UNK         0.0771 
    128 H128       37.9737   31.0677    3.7613 H         1 UNK         0.0771 
    129 H129       39.1790   32.3012    4.1372 H         1 UNK         0.0771 
    130 H130       35.2721   31.1923    5.6359 H         1 UNK         0.2980 
    131 H131       35.5847   28.5189    6.7431 H         1 UNK         0.0545 
    132 H132       35.2504   31.5692    8.3219 H         1 UNK         0.3459 
    133 H133       34.5696   30.9352    9.8011 H         1 UNK         0.3459 
    134 H134       33.0299   29.9632    5.9234 H         1 UNK         0.0616 
    135 H135       33.1632   28.2713    6.2997 H         1 UNK         0.0616 
    136 H136       34.8590   26.6157    3.4261 H         1 UNK         0.0634 
    137 H137       34.3114   26.5507    5.0758 H         1 UNK         0.0634 
@<TRIPOS>BOND
     1    1    2 1    
     2    1   72 1    
     3    1   73 1    
     4    1   74 1    
     5    2    3 2    
     6    2    4 am   BACKBONE|DICT|INTERRES
     7    4    5 1    
     8    4   75 1    
     9    5    6 1    
    10    5   35 1    
    11    5   76 1    
    12    6    7 1    
    13    6   77 1    
    14    6   78 1    
    15    7    8 1    
    16    8    9 1    
    17    8   79 1    
    18    8   80 1    
    19    9   10 ar   
    20    9   14 ar   
    21   10   11 ar   
    22   10   81 1    
    23   11   12 ar   
    24   11   71 1    
    25   12   13 ar   
    26   12   82 1    
    27   13   14 ar   
    28   13   15 1    
    29   14   83 1    
    30   15   16 1    
    31   15   84 1    
    32   15   85 1    
    33   16   17 1    
    34   17   18 1    
    35   17   86 1    
    36   17   87 1    
    37   18   19 1    
    38   18   37 1    
    39   18   88 1    
    40   19   20 am   BACKBONE|DICT|INTERRES
    41   19   89 1    
    42   20   21 2    
    43   20   22 1    
    44   22   23 1    
    45   22   24 1    
    46   22   90 1    
    47   23   91 1    
    48   23   92 1    
    49   23   93 1    
    50   24   25 am   BACKBONE|DICT|INTERRES
    51   24   94 1    
    52   25   26 2    
    53   25   27 1    
    54   27   28 1    
    55   27   29 1    
    56   27   95 1    
    57   28   96 1    
    58   28   97 1    
    59   28   98 1    
    60   29   30 am   BACKBONE|DICT|INTERRES
    61   29   99 1    
    62   30   31 2    
    63   30   32 1    
    64   32   33 1    
    65   32   34 1    
    66   32  100 1    
    67   33  101 1    
    68   33  102 1    
    69   33  103 1    
    70   34   35 am   BACKBONE|DICT|INTERRES
    71   34  104 1    
    72   35   36 2    
    73   37   38 2    
    74   37   39 am   BACKBONE|DICT|INTERRES
    75   39   40 1    
    76   39  105 1    
    77   40   41 1    
    78   40   42 1    
    79   40  106 1    
    80   41  107 1    
    81   41  108 1    
    82   41  109 1    
    83   42   43 2    
    84   42   44 am   BACKBONE|DICT|INTERRES
    85   44   45 1    
    86   44  110 1    
    87   45   46 1    
    88   45   47 1    
    89   45  111 1    
    90   46  112 1    
    91   46  113 1    
    92   46  114 1    
    93   47   48 2    
    94   47   49 am   BACKBONE|DICT|INTERRES
    95   49   50 1    
    96   49  115 1    
    97   50   51 1    
    98   50   52 1    
    99   50  116 1    
   100   51  117 1    
   101   51  118 1    
   102   51  119 1    
   103   52   53 2    
   104   52   54 am   BACKBONE|DICT|INTERRES
   105   54   55 1    
   106   54  120 1    
   107   55   56 1    
   108   55   57 1    
   109   55  121 1    
   110   56  122 1    
   111   56  123 1    
   112   56  124 1    
   113   57   58 2    
   114   57   59 am   BACKBONE|DICT|INTERRES
   115   59   60 1    
   116   59  125 1    
   117   60   61 1    
   118   60   62 1    
   119   60  126 1    
   120   61  127 1    
   121   61  128 1    
   122   61  129 1    
   123   62   63 2    
   124   62   64 am   BACKBONE|DICT|INTERRES
   125   64   65 1    
   126   64  130 1    
   127   65   66 1    
   128   65   69 1    
   129   65  131 1    
   130   66   67 am   BACKBONE|DICT|INTERRES
   131   66   68 2    
   132   67  132 1    
   133   67  133 1    
   134   69   70 1    
   135   69  134 1    
   136   69  135 1    
   137   70   71 1    
   138   71  136 1    
   139   71  137 1    
@<TRIPOS>SUBSTRUCTURE
     1 UNK         1 GROUP             0       ****    0 ROOT    
