@<TRIPOS>MOLECULE
3R136
137   139    1
SMALL
USER_CHARGES


@<TRIPOS>ATOM
      1 CA         28.6753   22.8979   -3.3090 C.3       0 UNK        -0.1979 
      2 C          28.7016   23.4140   -1.8792 C.2       0 UNK         0.4864 
      3 O          28.3673   24.5764   -1.6483 O.2       0 UNK        -0.5359 
      4 N          29.0801   22.5541   -0.9216 N.am      1 UNK        -0.4318 
      5 CA         29.2374   22.8350    0.5152 C.3       1 UNK         0.0824 
      6 C6         29.5705   21.5481    1.3090 C.3       12 UNK        -0.0944 
      7 S7         31.1372   20.7884    0.7663 S.3       12 UNK        -0.2672 
      8 C8         32.0662   20.6855    2.3294 C.3       12 UNK         0.0333 
      9 C9         32.4230   22.0583    2.8827 C.ar      12 UNK        -0.0807 
     10 C10        33.4030   22.8311    2.2548 C.ar      12 UNK        -0.0894 
     11 C11        33.7560   24.0809    2.7689 C.ar      12 UNK        -0.0804 
     12 C12        33.1264   24.5546    3.9244 C.ar      12 UNK        -0.0824 
     13 C13        32.1400   23.7940    4.5616 C.ar      12 UNK        -0.0762 
     14 C14        31.7946   22.5452    4.0340 C.ar      12 UNK        -0.0782 
     15 C15        31.4679   24.2903    5.8403 C.3       12 UNK         0.0230 
     16 S16        30.8878   26.0188    5.7535 S.3       12 UNK        -0.2608 
     17 C17        29.6226   25.9237    4.4434 C.3       12 UNK        -0.0989 
     18 CA         29.3910   27.2968    3.7514 C.3       5 UNK         0.0716 
     19 N          29.2978   27.1438    2.2974 N.am      5 UNK        -0.4135 
     20 C          29.7844   28.0217    1.4109 C.2       4 UNK         0.5031 
     21 O          30.3619   29.0630    1.7195 O.2       4 UNK        -0.5229 
     22 CA         29.5710   27.7029   -0.0773 C.3       4 UNK         0.0329 
     23 CB         30.7065   26.8106   -0.6016 C.3       4 UNK        -0.2001 
     24 N          28.2793   27.0845   -0.3922 N.am      4 UNK        -0.4303 
     25 C          27.0793   27.6285   -0.1441 C.2       3 UNK         0.5044 
     26 O          26.9180   28.6579    0.5093 O.2       3 UNK        -0.5152 
     27 CA         25.8536   26.8886   -0.6921 C.3       3 UNK         0.0319 
     28 CB         25.8065   26.9539   -2.2278 C.3       3 UNK        -0.2001 
     29 N          25.8748   25.4963   -0.2547 N.am      3 UNK        -0.4354 
     30 C          25.2531   25.0410    0.8418 C.2       2 UNK         0.4964 
     31 O          24.4897   25.7187    1.5291 O.2       2 UNK        -0.5047 
     32 CA         25.5264   23.5843    1.2586 C.3       2 UNK         0.0288 
     33 CB         24.3973   22.6640    0.7666 C.3       2 UNK        -0.2113 
     34 N          26.8117   23.0557    0.7943 N.am      2 UNK        -0.4145 
     35 C          28.0157   23.5306    1.1469 C.2       1 UNK         0.5006 
     36 O          28.1840   24.4924    1.8981 O.2       1 UNK        -0.5103 
     37 C          28.1857   28.0629    4.3472 C.2       5 UNK         0.5055 
     38 O          28.1533   28.2637    5.5625 O.2       5 UNK        -0.5220 
     39 N          27.2128   28.4636    3.5137 N.am      6 UNK        -0.4450 
     40 CA         26.0269   29.2217    3.9204 C.3       6 UNK         0.0367 
     41 CB         24.7649   28.5283    3.3821 C.3       6 UNK        -0.1929 
     42 C          26.0973   30.6713    3.4219 C.2       6 UNK         0.5070 
     43 O          25.8015   31.5895    4.1866 O.2       6 UNK        -0.5237 
     44 N          26.4842   30.8581    2.1527 N.am      7 UNK        -0.4739 
     45 CA         26.5912   32.1607    1.4894 C.3       7 UNK         0.0276 
     46 CB         26.6140   31.9399   -0.0322 C.3       7 UNK        -0.1927 
     47 C          27.8174   32.9802    1.9277 C.2       7 UNK         0.5013 
     48 O          27.8351   34.1929    1.7112 O.2       7 UNK        -0.5193 
     49 N          28.8148   32.3178    2.5210 N.am      8 UNK        -0.4253 
     50 CA         30.0414   32.9092    3.0400 C.3       8 UNK         0.0242 
     51 CB         31.1307   32.8512    1.9540 C.3       8 UNK        -0.2000 
     52 C          30.4686   32.1355    4.2909 C.2       8 UNK         0.4948 
     53 O          30.0058   31.0123    4.5124 O.2       8 UNK        -0.5275 
     54 N          31.3720   32.7336    5.0774 N.am      9 UNK        -0.4246 
     55 CA         32.0059   32.1197    6.2472 C.3       9 UNK         0.0261 
     56 CB         32.5833   33.2300    7.1455 C.3       9 UNK        -0.1959 
     57 C          33.0699   31.0937    5.8103 C.2       9 UNK         0.5033 
     58 O          34.2673   31.3499    5.9548 O.2       9 UNK        -0.5390 
     59 N          32.5887   29.9762    5.2491 N.am      10 UNK        -0.4215 
     60 CA         33.3207   28.9133    4.5518 C.3       10 UNK         0.0240 
     61 CB         34.4313   28.3011    5.4351 C.3       10 UNK        -0.1982 
     62 C          33.8344   29.3624    3.1696 C.2       10 UNK         0.4970 
     63 O          33.6615   30.5167    2.7718 O.2       10 UNK        -0.4916 
     64 N          34.4156   28.4029    2.4431 N.am      11 UNK        -0.4279 
     65 CA         34.9057   28.5347    1.0643 C.3       11 UNK         0.1003 
     66 C          36.0234   29.6019    0.9076 C.2       11 UNK         0.5709 
     67 N          36.0200   30.3502   -0.1873 N.am      11 UNK        -0.7358 
     68 O          36.9173   29.7206    1.7440 O.2       11 UNK        -0.4999 
     69 C69        35.3814   27.1664    0.5060 C.3       12 UNK        -0.0954 
     70 S70        34.1271   25.8531    0.6904 S.3       12 UNK        -0.2268 
     71 C71        34.8255   24.9123    2.0817 C.3       12 UNK         0.0203 
     72 H72        27.6692   22.9823   -3.7186 H         1 UNK         0.0888 
     73 H73        29.3471   23.4888   -3.9307 H         1 UNK         0.0888 
     74 H74        28.9826   21.8542   -3.3727 H         1 UNK         0.0888 
     75 H75        29.3510   21.6195   -1.1938 H         1 UNK         0.3017 
     76 H76        30.0782   23.5248    0.6141 H         1 UNK         0.0873 
     77 H77        28.7779   20.8062    1.1925 H         1 UNK         0.0745 
     78 H78        29.6234   21.7602    2.3780 H         1 UNK         0.0745 
     79 H79        32.9836   20.1213    2.1554 H         1 UNK         0.0705 
     80 H80        31.4886   20.1092    3.0539 H         1 UNK         0.0705 
     81 H81        33.8893   22.4595    1.3629 H         1 UNK         0.1334 
     82 H82        33.4019   25.5161    4.3328 H         1 UNK         0.1417 
     83 H83        31.0424   21.9444    4.5272 H         1 UNK         0.1562 
     84 H84        32.1809   24.2045    6.6612 H         1 UNK         0.0748 
     85 H85        30.6195   23.6564    6.1034 H         1 UNK         0.0748 
     86 H86        28.7009   25.5046    4.8527 H         1 UNK         0.0940 
     87 H87        29.9707   25.1911    3.7142 H         1 UNK         0.0940 
     88 H88        30.2559   27.9301    3.9561 H         1 UNK         0.0703 
     89 H89        28.8389   26.2976    1.9678 H         1 UNK         0.3081 
     90 H90        29.6091   28.6507   -0.6182 H         1 UNK         0.0719 
     91 H91        30.6106   26.6314   -1.6726 H         1 UNK         0.0809 
     92 H92        31.6766   27.2815   -0.4376 H         1 UNK         0.0809 
     93 H93        30.7238   25.8421   -0.1007 H         1 UNK         0.0809 
     94 H94        28.3152   26.2046   -0.9063 H         1 UNK         0.2990 
     95 H95        24.9608   27.3899   -0.3118 H         1 UNK         0.0690 
     96 H96        25.8017   27.9888   -2.5730 H         1 UNK         0.0788 
     97 H97        24.9038   26.4800   -2.6134 H         1 UNK         0.0788 
     98 H98        26.6633   26.4602   -2.6879 H         1 UNK         0.0788 
     99 H99        26.5267   24.8867   -0.7357 H         1 UNK         0.2993 
    100 H100       25.5378   23.5622    2.3506 H         1 UNK         0.0949 
    101 H101       24.3535   22.6260   -0.3227 H         1 UNK         0.0767 
    102 H102       24.5250   21.6458    1.1350 H         1 UNK         0.0767 
    103 H103       23.4262   23.0143    1.1199 H         1 UNK         0.0767 
    104 H104       26.7765   22.2763    0.1533 H         1 UNK         0.3013 
    105 H105       27.3194   28.2952    2.5201 H         1 UNK         0.3121 
    106 H106       25.9467   29.2540    5.0090 H         1 UNK         0.0774 
    107 H107       24.7671   28.4629    2.2934 H         1 UNK         0.0815 
    108 H108       23.8656   29.0716    3.6746 H         1 UNK         0.0815 
    109 H109       24.6737   27.5154    3.7743 H         1 UNK         0.0815 
    110 H110       26.6766   30.0445    1.5689 H         1 UNK         0.2987 
    111 H111       25.7035   32.7464    1.7382 H         1 UNK         0.0949 
    112 H112       27.4823   31.3557   -0.3403 H         1 UNK         0.0806 
    113 H113       25.7209   31.4139   -0.3705 H         1 UNK         0.0806 
    114 H114       26.6525   32.8903   -0.5663 H         1 UNK         0.0806 
    115 H115       28.7069   31.3304    2.7188 H         1 UNK         0.3010 
    116 H116       29.8603   33.9473    3.3276 H         1 UNK         0.0829 
    117 H117       30.8350   33.4073    1.0644 H         1 UNK         0.0813 
    118 H118       32.0689   33.2801    2.3081 H         1 UNK         0.0813 
    119 H119       31.3381   31.8228    1.6528 H         1 UNK         0.0813 
    120 H120       31.7260   33.6393    4.8042 H         1 UNK         0.3038 
    121 H121       31.2463   31.5869    6.8240 H         1 UNK         0.0769 
    122 H122       33.3358   33.8239    6.6251 H         1 UNK         0.0811 
    123 H123       33.0583   32.8058    8.0311 H         1 UNK         0.0811 
    124 H124       31.8018   33.9068    7.4915 H         1 UNK         0.0811 
    125 H125       31.5830   29.9717    5.0968 H         1 UNK         0.3204 
    126 H126       32.5843   28.1327    4.3611 H         1 UNK         0.0748 
    127 H127       34.8310   27.3856    4.9995 H         1 UNK         0.0771 
    128 H128       35.2713   28.9837    5.5664 H         1 UNK         0.0771 
    129 H129       34.0510   28.0428    6.4236 H         1 UNK         0.0771 
    130 H130       34.5136   27.4847    2.8435 H         1 UNK         0.2980 
    131 H131       34.0500   28.8587    0.4683 H         1 UNK         0.0545 
    132 H132       36.7483   31.0357   -0.3133 H         1 UNK         0.3459 
    133 H133       35.3002   30.2508   -0.8859 H         1 UNK         0.3459 
    134 H134       35.6093   27.2557   -0.5576 H         1 UNK         0.0616 
    135 H135       36.3101   26.8517    0.9863 H         1 UNK         0.0616 
    136 H136       35.2857   25.5906    2.8013 H         1 UNK         0.0634 
    137 H137       35.6254   24.2681    1.7133 H         1 UNK         0.0634 
@<TRIPOS>BOND
     1    1    2 1    
     2    1   72 1    
     3    1   73 1    
     4    1   74 1    
     5    2    3 2    
     6    2    4 am   BACKBONE|DICT|INTERRES
     7    4    5 1    
     8    4   75 1    
     9    5    6 1    
    10    5   35 1    
    11    5   76 1    
    12    6    7 1    
    13    6   77 1    
    14    6   78 1    
    15    7    8 1    
    16    8    9 1    
    17    8   79 1    
    18    8   80 1    
    19    9   10 ar   
    20    9   14 ar   
    21   10   11 ar   
    22   10   81 1    
    23   11   12 ar   
    24   11   71 1    
    25   12   13 ar   
    26   12   82 1    
    27   13   14 ar   
    28   13   15 1    
    29   14   83 1    
    30   15   16 1    
    31   15   84 1    
    32   15   85 1    
    33   16   17 1    
    34   17   18 1    
    35   17   86 1    
    36   17   87 1    
    37   18   19 1    
    38   18   37 1    
    39   18   88 1    
    40   19   20 am   BACKBONE|DICT|INTERRES
    41   19   89 1    
    42   20   21 2    
    43   20   22 1    
    44   22   23 1    
    45   22   24 1    
    46   22   90 1    
    47   23   91 1    
    48   23   92 1    
    49   23   93 1    
    50   24   25 am   BACKBONE|DICT|INTERRES
    51   24   94 1    
    52   25   26 2    
    53   25   27 1    
    54   27   28 1    
    55   27   29 1    
    56   27   95 1    
    57   28   96 1    
    58   28   97 1    
    59   28   98 1    
    60   29   30 am   BACKBONE|DICT|INTERRES
    61   29   99 1    
    62   30   31 2    
    63   30   32 1    
    64   32   33 1    
    65   32   34 1    
    66   32  100 1    
    67   33  101 1    
    68   33  102 1    
    69   33  103 1    
    70   34   35 am   BACKBONE|DICT|INTERRES
    71   34  104 1    
    72   35   36 2    
    73   37   38 2    
    74   37   39 am   BACKBONE|DICT|INTERRES
    75   39   40 1    
    76   39  105 1    
    77   40   41 1    
    78   40   42 1    
    79   40  106 1    
    80   41  107 1    
    81   41  108 1    
    82   41  109 1    
    83   42   43 2    
    84   42   44 am   BACKBONE|DICT|INTERRES
    85   44   45 1    
    86   44  110 1    
    87   45   46 1    
    88   45   47 1    
    89   45  111 1    
    90   46  112 1    
    91   46  113 1    
    92   46  114 1    
    93   47   48 2    
    94   47   49 am   BACKBONE|DICT|INTERRES
    95   49   50 1    
    96   49  115 1    
    97   50   51 1    
    98   50   52 1    
    99   50  116 1    
   100   51  117 1    
   101   51  118 1    
   102   51  119 1    
   103   52   53 2    
   104   52   54 am   BACKBONE|DICT|INTERRES
   105   54   55 1    
   106   54  120 1    
   107   55   56 1    
   108   55   57 1    
   109   55  121 1    
   110   56  122 1    
   111   56  123 1    
   112   56  124 1    
   113   57   58 2    
   114   57   59 am   BACKBONE|DICT|INTERRES
   115   59   60 1    
   116   59  125 1    
   117   60   61 1    
   118   60   62 1    
   119   60  126 1    
   120   61  127 1    
   121   61  128 1    
   122   61  129 1    
   123   62   63 2    
   124   62   64 am   BACKBONE|DICT|INTERRES
   125   64   65 1    
   126   64  130 1    
   127   65   66 1    
   128   65   69 1    
   129   65  131 1    
   130   66   67 am   BACKBONE|DICT|INTERRES
   131   66   68 2    
   132   67  132 1    
   133   67  133 1    
   134   69   70 1    
   135   69  134 1    
   136   69  135 1    
   137   70   71 1    
   138   71  136 1    
   139   71  137 1    
@<TRIPOS>SUBSTRUCTURE
     1 UNK         1 GROUP             0       ****    0 ROOT    
