@<TRIPOS>MOLECULE
3R136
137   139    1
SMALL
USER_CHARGES


@<TRIPOS>ATOM
      1 CA         29.1872   18.5938    1.9883 C.3       0 UNK        -0.1979 
      2 C          29.6892   19.5942    0.9577 C.2       0 UNK         0.4864 
      3 O          29.9323   19.2196   -0.1903 O.2       0 UNK        -0.5359 
      4 N          29.8476   20.8623    1.3606 N.am      1 UNK        -0.4318 
      5 CA         30.3250   21.9613    0.5097 C.3       1 UNK         0.0824 
      6 C6         30.7244   23.2074    1.3365 C.3       12 UNK        -0.0944 
      7 S7         32.0682   22.8750    2.5242 S.3       12 UNK        -0.2672 
      8 C8         31.1865   22.8881    4.1224 C.3       12 UNK         0.0333 
      9 C9         30.4798   24.2081    4.4145 C.ar      12 UNK        -0.0807 
     10 C10        31.1762   25.4182    4.3393 C.ar      12 UNK        -0.0894 
     11 C11        30.5379   26.6261    4.6319 C.ar      12 UNK        -0.0804 
     12 C12        29.1939   26.6194    5.0122 C.ar      12 UNK        -0.0824 
     13 C13        28.4789   25.4194    5.0759 C.ar      12 UNK        -0.0762 
     14 C14        29.1282   24.2171    4.7767 C.ar      12 UNK        -0.0782 
     15 C15        27.0134   25.4143    5.4906 C.3       12 UNK         0.0230 
     16 S16        25.8900   25.5845    4.0643 S.3       12 UNK        -0.2608 
     17 C17        26.0188   27.3673    3.6906 C.3       12 UNK        -0.0989 
     18 CA         26.5716   27.6306    2.2603 C.3       5 UNK         0.0716 
     19 N          25.6677   27.1571    1.2016 N.am      5 UNK        -0.4135 
     20 C          24.4537   27.6562    0.9078 C.2       4 UNK         0.5031 
     21 O          23.8999   28.5321    1.5748 O.2       4 UNK        -0.5229 
     22 CA         23.7394   27.1151   -0.3533 C.3       4 UNK         0.0329 
     23 CB         22.8659   28.1925   -1.0313 C.3       4 UNK        -0.2001 
     24 N          24.6327   26.4970   -1.3430 N.am      4 UNK        -0.4303 
     25 C          25.7067   27.0489   -1.9304 C.2       3 UNK         0.5044 
     26 O          26.0714   28.2083   -1.7320 O.2       3 UNK        -0.5152 
     27 CA         26.5508   26.1221   -2.8303 C.3       3 UNK         0.0319 
     28 CB         28.0043   26.6214   -2.9781 C.3       3 UNK        -0.2001 
     29 N          26.5458   24.7120   -2.4068 N.am      3 UNK        -0.4354 
     30 C          26.8740   24.2257   -1.1985 C.2       2 UNK         0.4964 
     31 O          27.1549   24.9344   -0.2277 O.2       2 UNK        -0.5047 
     32 CA         26.8460   22.6933   -1.0206 C.3       2 UNK         0.0288 
     33 CB         26.7067   21.8933   -2.3373 C.3       2 UNK        -0.2113 
     34 N          28.0013   22.2307   -0.2451 N.am      2 UNK        -0.4145 
     35 C          29.2984   22.3724   -0.5652 C.2       1 UNK         0.5006 
     36 O          29.7036   22.8237   -1.6384 O.2       1 UNK        -0.5103 
     37 C          27.0127   29.1030    2.0459 C.2       5 UNK         0.5055 
     38 O          27.3035   29.8001    3.0197 O.2       5 UNK        -0.5220 
     39 N          27.0633   29.5631    0.7833 N.am      6 UNK        -0.4450 
     40 CA         27.3639   30.9524    0.4143 C.3       6 UNK         0.0367 
     41 CB         26.9523   31.1910   -1.0471 C.3       6 UNK        -0.1929 
     42 C          28.8280   31.3773    0.6304 C.2       6 UNK         0.5070 
     43 O          29.1031   32.5779    0.6442 O.2       6 UNK        -0.5237 
     44 N          29.7446   30.4151    0.8045 N.am      7 UNK        -0.4739 
     45 CA         31.1807   30.6198    1.0378 C.3       7 UNK         0.0276 
     46 CB         31.9232   29.3144    0.6916 C.3       7 UNK        -0.1927 
     47 C          31.5029   31.1211    2.4639 C.2       7 UNK         0.5013 
     48 O          32.3709   30.5579    3.1330 O.2       7 UNK        -0.5193 
     49 N          30.7899   32.1611    2.9154 N.am      8 UNK        -0.4253 
     50 CA         30.8891   32.7659    4.2447 C.3       8 UNK         0.0242 
     51 CB         29.8940   33.9330    4.3478 C.3       8 UNK        -0.2000 
     52 C          32.3190   33.2315    4.5635 C.2       8 UNK         0.4948 
     53 O          32.8910   34.0066    3.7941 O.2       8 UNK        -0.5275 
     54 N          32.8638   32.7163    5.6746 N.am      9 UNK        -0.4246 
     55 CA         34.2384   32.8940    6.1631 C.3       9 UNK         0.0261 
     56 CB         34.5384   34.3766    6.4741 C.3       9 UNK        -0.1959 
     57 C          35.3244   32.2477    5.2741 C.2       9 UNK         0.5033 
     58 O          36.5079   32.5090    5.4973 O.2       9 UNK        -0.5390 
     59 N          34.9290   31.3920    4.3214 N.am      10 UNK        -0.4215 
     60 CA         35.8137   30.6182    3.4474 C.3       10 UNK         0.0240 
     61 CB         35.7052   31.1631    2.0104 C.3       10 UNK        -0.1982 
     62 C          35.4831   29.1168    3.5377 C.2       10 UNK         0.4970 
     63 O          35.6987   28.3831    2.5718 O.2       10 UNK        -0.4916 
     64 N          34.9609   28.6857    4.6942 N.am      11 UNK        -0.4279 
     65 CA         34.5259   27.3078    4.9697 C.3       11 UNK         0.1003 
     66 C          35.6780   26.2816    5.1754 C.2       11 UNK         0.5709 
     67 N          36.9310   26.7011    5.3084 N.am      11 UNK        -0.7358 
     68 O          35.4287   25.0792    5.2090 O.2       11 UNK        -0.4999 
     69 C69        33.5136   27.2464    6.1490 C.3       12 UNK        -0.0954 
     70 S70        32.1260   28.4327    6.0432 S.3       12 UNK        -0.2268 
     71 C71        31.2845   27.9439    4.5042 C.3       12 UNK         0.0203 
     72 H72        29.9133   17.7915    2.1164 H         1 UNK         0.0888 
     73 H73        28.2474   18.1531    1.6565 H         1 UNK         0.0888 
     74 H74        29.0200   19.0572    2.9604 H         1 UNK         0.0888 
     75 H75        29.6537   21.1043    2.3207 H         1 UNK         0.3017 
     76 H76        31.2130   21.6072   -0.0190 H         1 UNK         0.0873 
     77 H77        31.0778   24.0021    0.6760 H         1 UNK         0.0745 
     78 H78        29.8561   23.6192    1.8538 H         1 UNK         0.0745 
     79 H79        30.4818   22.0560    4.1432 H         1 UNK         0.0705 
     80 H80        31.9078   22.6970    4.9181 H         1 UNK         0.0705 
     81 H81        32.2167   25.4152    4.0472 H         1 UNK         0.1334 
     82 H82        28.7083   27.5543    5.2528 H         1 UNK         0.1417 
     83 H83        28.5788   23.2872    4.8349 H         1 UNK         0.1562 
     84 H84        26.8173   26.2067    6.2147 H         1 UNK         0.0748 
     85 H85        26.7813   24.4797    6.0036 H         1 UNK         0.0748 
     86 H86        26.6422   27.8386    4.4490 H         1 UNK         0.0940 
     87 H87        25.0345   27.8196    3.8167 H         1 UNK         0.0940 
     88 H88        27.4874   27.0469    2.1509 H         1 UNK         0.0703 
     89 H89        26.0474   26.4226    0.6116 H         1 UNK         0.3081 
     90 H90        23.0771   26.3221   -0.0033 H         1 UNK         0.0719 
     91 H91        23.4595   29.0506   -1.3488 H         1 UNK         0.0809 
     92 H92        22.3545   27.7956   -1.9081 H         1 UNK         0.0809 
     93 H93        22.0969   28.5625   -0.3519 H         1 UNK         0.0809 
     94 H94        24.4370   25.5297   -1.5600 H         1 UNK         0.2990 
     95 H95        26.0856   26.1527   -3.8165 H         1 UNK         0.0690 
     96 H96        28.5827   25.9700   -3.6333 H         1 UNK         0.0788 
     97 H97        28.5148   26.6649   -2.0152 H         1 UNK         0.0788 
     98 H98        28.0358   27.6227   -3.4096 H         1 UNK         0.0788 
     99 H99        26.3106   24.0427   -3.1270 H         1 UNK         0.2993 
    100 H100       25.9661   22.4807   -0.4113 H         1 UNK         0.0949 
    101 H101       25.7597   22.1057   -2.8348 H         1 UNK         0.0767 
    102 H102       27.5112   22.1128   -3.0405 H         1 UNK         0.0767 
    103 H103       26.7259   20.8204   -2.1441 H         1 UNK         0.0767 
    104 H104       27.7898   21.8696    0.6739 H         1 UNK         0.3013 
    105 H105       26.7887   28.9499    0.0207 H         1 UNK         0.3121 
    106 H106       26.7510   31.6009    1.0440 H         1 UNK         0.0774 
    107 H107       27.5254   30.5663   -1.7334 H         1 UNK         0.0815 
    108 H108       27.1161   32.2298   -1.3372 H         1 UNK         0.0815 
    109 H109       25.8947   30.9760   -1.2018 H         1 UNK         0.0815 
    110 H110       29.4209   29.4592    0.8034 H         1 UNK         0.2987 
    111 H111       31.5328   31.3931    0.3515 H         1 UNK         0.0949 
    112 H112       31.6068   28.4893    1.3301 H         1 UNK         0.0806 
    113 H113       31.7502   29.0223   -0.3442 H         1 UNK         0.0806 
    114 H114       33.0011   29.4263    0.8163 H         1 UNK         0.0806 
    115 H115       30.1189   32.5686    2.2706 H         1 UNK         0.3010 
    116 H116       30.5938   32.0009    4.9660 H         1 UNK         0.0829 
    117 H117       28.8696   33.5971    4.1848 H         1 UNK         0.0813 
    118 H118       29.9313   34.3923    5.3366 H         1 UNK         0.0813 
    119 H119       30.1118   34.7129    3.6168 H         1 UNK         0.0813 
    120 H120       32.2998   32.0774    6.2193 H         1 UNK         0.3038 
    121 H121       34.2818   32.3531    7.1096 H         1 UNK         0.0769 
    122 H122       34.6035   34.9777    5.5668 H         1 UNK         0.0811 
    123 H123       35.4892   34.4820    6.9980 H         1 UNK         0.0811 
    124 H124       33.7699   34.8126    7.1122 H         1 UNK         0.0811 
    125 H125       33.9354   31.2260    4.1752 H         1 UNK         0.3204 
    126 H126       36.8516   30.7187    3.7703 H         1 UNK         0.0748 
    127 H127       36.3862   30.6419    1.3365 H         1 UNK         0.0771 
    128 H128       34.6965   31.0485    1.6130 H         1 UNK         0.0771 
    129 H129       35.9600   32.2222    1.9709 H         1 UNK         0.0771 
    130 H130       34.8185   29.3498    5.4393 H         1 UNK         0.2980 
    131 H131       34.0097   26.9605    4.0747 H         1 UNK         0.0545 
    132 H132       37.1474   27.6841    5.2806 H         1 UNK         0.3459 
    133 H133       37.6666   26.0244    5.4370 H         1 UNK         0.3459 
    134 H134       33.0973   26.2429    6.2482 H         1 UNK         0.0616 
    135 H135       34.0304   27.4455    7.0895 H         1 UNK         0.0616 
    136 H136       30.5801   28.7335    4.2379 H         1 UNK         0.0634 
    137 H137       31.9985   27.9000    3.6826 H         1 UNK         0.0634 
@<TRIPOS>BOND
     1    1    2 1    
     2    1   72 1    
     3    1   73 1    
     4    1   74 1    
     5    2    3 2    
     6    2    4 am   BACKBONE|DICT|INTERRES
     7    4    5 1    
     8    4   75 1    
     9    5    6 1    
    10    5   35 1    
    11    5   76 1    
    12    6    7 1    
    13    6   77 1    
    14    6   78 1    
    15    7    8 1    
    16    8    9 1    
    17    8   79 1    
    18    8   80 1    
    19    9   10 ar   
    20    9   14 ar   
    21   10   11 ar   
    22   10   81 1    
    23   11   12 ar   
    24   11   71 1    
    25   12   13 ar   
    26   12   82 1    
    27   13   14 ar   
    28   13   15 1    
    29   14   83 1    
    30   15   16 1    
    31   15   84 1    
    32   15   85 1    
    33   16   17 1    
    34   17   18 1    
    35   17   86 1    
    36   17   87 1    
    37   18   19 1    
    38   18   37 1    
    39   18   88 1    
    40   19   20 am   BACKBONE|DICT|INTERRES
    41   19   89 1    
    42   20   21 2    
    43   20   22 1    
    44   22   23 1    
    45   22   24 1    
    46   22   90 1    
    47   23   91 1    
    48   23   92 1    
    49   23   93 1    
    50   24   25 am   BACKBONE|DICT|INTERRES
    51   24   94 1    
    52   25   26 2    
    53   25   27 1    
    54   27   28 1    
    55   27   29 1    
    56   27   95 1    
    57   28   96 1    
    58   28   97 1    
    59   28   98 1    
    60   29   30 am   BACKBONE|DICT|INTERRES
    61   29   99 1    
    62   30   31 2    
    63   30   32 1    
    64   32   33 1    
    65   32   34 1    
    66   32  100 1    
    67   33  101 1    
    68   33  102 1    
    69   33  103 1    
    70   34   35 am   BACKBONE|DICT|INTERRES
    71   34  104 1    
    72   35   36 2    
    73   37   38 2    
    74   37   39 am   BACKBONE|DICT|INTERRES
    75   39   40 1    
    76   39  105 1    
    77   40   41 1    
    78   40   42 1    
    79   40  106 1    
    80   41  107 1    
    81   41  108 1    
    82   41  109 1    
    83   42   43 2    
    84   42   44 am   BACKBONE|DICT|INTERRES
    85   44   45 1    
    86   44  110 1    
    87   45   46 1    
    88   45   47 1    
    89   45  111 1    
    90   46  112 1    
    91   46  113 1    
    92   46  114 1    
    93   47   48 2    
    94   47   49 am   BACKBONE|DICT|INTERRES
    95   49   50 1    
    96   49  115 1    
    97   50   51 1    
    98   50   52 1    
    99   50  116 1    
   100   51  117 1    
   101   51  118 1    
   102   51  119 1    
   103   52   53 2    
   104   52   54 am   BACKBONE|DICT|INTERRES
   105   54   55 1    
   106   54  120 1    
   107   55   56 1    
   108   55   57 1    
   109   55  121 1    
   110   56  122 1    
   111   56  123 1    
   112   56  124 1    
   113   57   58 2    
   114   57   59 am   BACKBONE|DICT|INTERRES
   115   59   60 1    
   116   59  125 1    
   117   60   61 1    
   118   60   62 1    
   119   60  126 1    
   120   61  127 1    
   121   61  128 1    
   122   61  129 1    
   123   62   63 2    
   124   62   64 am   BACKBONE|DICT|INTERRES
   125   64   65 1    
   126   64  130 1    
   127   65   66 1    
   128   65   69 1    
   129   65  131 1    
   130   66   67 am   BACKBONE|DICT|INTERRES
   131   66   68 2    
   132   67  132 1    
   133   67  133 1    
   134   69   70 1    
   135   69  134 1    
   136   69  135 1    
   137   70   71 1    
   138   71  136 1    
   139   71  137 1    
@<TRIPOS>SUBSTRUCTURE
     1 UNK         1 GROUP             0       ****    0 ROOT    
