@<TRIPOS>MOLECULE
3R136
137   139    1
SMALL
USER_CHARGES


@<TRIPOS>ATOM
      1 CA         30.8603   25.7391    4.1376 C.3       0 UNK        -0.1979 
      2 C          29.5322   25.0516    3.8956 C.2       0 UNK         0.4864 
      3 O          28.5878   25.2356    4.6655 O.2       0 UNK        -0.5359 
      4 N          29.4512   24.2610    2.8200 N.am      1 UNK        -0.4318 
      5 CA         28.2480   23.5430    2.3934 C.3       1 UNK         0.0824 
      6 C6         28.5821   22.3576    1.4511 C.3       12 UNK        -0.0944 
      7 S7         29.7818   21.1907    2.1803 S.3       12 UNK        -0.2672 
      8 C8         31.1347   21.2320    0.9609 C.3       12 UNK         0.0333 
      9 C9         31.9856   22.4923    1.0639 C.ar      12 UNK        -0.0807 
     10 C10        33.0759   22.5300    1.9409 C.ar      12 UNK        -0.0894 
     11 C11        33.9160   23.6474    1.9846 C.ar      12 UNK        -0.0804 
     12 C12        33.6417   24.7416    1.1589 C.ar      12 UNK        -0.0824 
     13 C13        32.5449   24.7265    0.2934 C.ar      12 UNK        -0.0762 
     14 C14        31.7247   23.5953    0.2423 C.ar      12 UNK        -0.0782 
     15 C15        32.2827   25.9228   -0.6102 C.3       12 UNK         0.0230 
     16 S16        31.3912   27.2437    0.2683 S.3       12 UNK        -0.2608 
     17 C17        29.6593   26.7148    0.0619 C.3       12 UNK        -0.0989 
     18 CA         28.9089   27.5646   -1.0001 C.3       5 UNK         0.0716 
     19 N          27.7625   26.8618   -1.5690 N.am      5 UNK        -0.4135 
     20 C          27.8222   25.8896   -2.4853 C.2       4 UNK         0.5031 
     21 O          28.8797   25.4710   -2.9608 O.2       4 UNK        -0.5229 
     22 CA         26.4820   25.2789   -2.9330 C.3       4 UNK         0.0329 
     23 CB         26.6515   23.9745   -3.7387 C.3       4 UNK        -0.2001 
     24 N          25.6187   25.0402   -1.7762 N.am      4 UNK        -0.4303 
     25 C          24.2784   25.0517   -1.7894 C.2       3 UNK         0.5044 
     26 O          23.6091   25.2689   -2.8005 O.2       3 UNK        -0.5152 
     27 CA         23.5464   24.7724   -0.4588 C.3       3 UNK         0.0319 
     28 CB         23.1183   23.2979   -0.3843 C.3       3 UNK        -0.2001 
     29 N          24.3397   25.0994    0.7292 N.am      3 UNK        -0.4354 
     30 C          24.7165   26.3374    1.0764 C.2       2 UNK         0.4964 
     31 O          24.3033   27.3496    0.5108 O.2       2 UNK        -0.5047 
     32 CA         25.7377   26.4891    2.2234 C.3       2 UNK         0.0288 
     33 CB         25.0357   26.9898    3.4968 C.3       2 UNK        -0.2113 
     34 N          26.5519   25.3119    2.5687 N.am      2 UNK        -0.4145 
     35 C          27.2681   24.5376    1.7398 C.2       1 UNK         0.5006 
     36 O          27.2175   24.6183    0.5133 O.2       1 UNK        -0.5103 
     37 C          28.4011   28.8875   -0.4076 C.2       5 UNK         0.5055 
     38 O          27.2144   28.9961   -0.0885 O.2       5 UNK        -0.5220 
     39 N          29.3112   29.8556   -0.2416 N.am      6 UNK        -0.4450 
     40 CA         29.0490   31.1158    0.4586 C.3       6 UNK         0.0367 
     41 CB         30.1629   32.1255    0.1382 C.3       6 UNK        -0.1929 
     42 C          28.9151   30.9240    1.9796 C.2       6 UNK         0.5070 
     43 O          28.1316   31.6371    2.6073 O.2       6 UNK        -0.5237 
     44 N          29.6768   29.9669    2.5342 N.am      7 UNK        -0.4739 
     45 CA         29.7562   29.5437    3.9394 C.3       7 UNK         0.0276 
     46 CB         28.4172   28.9629    4.4316 C.3       7 UNK        -0.1927 
     47 C          30.3054   30.6118    4.9031 C.2       7 UNK         0.5013 
     48 O          31.2830   30.3444    5.6055 O.2       7 UNK        -0.5193 
     49 N          29.6853   31.7983    4.9168 N.am      8 UNK        -0.4253 
     50 CA         30.0373   32.9571    5.7398 C.3       8 UNK         0.0242 
     51 CB         29.0133   34.0785    5.4937 C.3       8 UNK        -0.2000 
     52 C          31.4716   33.4330    5.4560 C.2       8 UNK         0.4948 
     53 O          31.7171   34.0281    4.4050 O.2       8 UNK        -0.5275 
     54 N          32.3879   33.1059    6.3803 N.am      9 UNK        -0.4246 
     55 CA         33.8440   33.2877    6.2940 C.3       9 UNK         0.0261 
     56 CB         34.2147   34.7867    6.2928 C.3       9 UNK        -0.1959 
     57 C          34.4929   32.5107    5.1265 C.2       9 UNK         0.5033 
     58 O          35.5490   32.9164    4.6366 O.2       9 UNK        -0.5390 
     59 N          33.8604   31.4084    4.7048 N.am      10 UNK        -0.4215 
     60 CA         34.2643   30.5819    3.5729 C.3       10 UNK         0.0240 
     61 CB         33.5799   31.1017    2.2925 C.3       10 UNK        -0.1982 
     62 C          33.9081   29.1256    3.8871 C.2       10 UNK         0.4970 
     63 O          32.9340   28.6074    3.3439 O.2       10 UNK        -0.4916 
     64 N          34.6844   28.5112    4.7902 N.am      11 UNK        -0.4279 
     65 CA         34.5396   27.1231    5.2712 C.3       11 UNK         0.1003 
     66 C          33.4098   26.9097    6.3278 C.2       11 UNK         0.5709 
     67 N          32.5401   27.8742    6.6010 N.am      11 UNK        -0.7358 
     68 O          33.3495   25.8632    6.9673 O.2       11 UNK        -0.4999 
     69 C69        34.5043   26.1030    4.0932 C.3       12 UNK        -0.0954 
     70 S70        34.8428   24.3644    4.5230 S.3       12 UNK        -0.2268 
     71 C71        35.1537   23.6518    2.8760 C.3       12 UNK         0.0203 
     72 H72        30.7532   26.5173    4.8914 H         1 UNK         0.0888 
     73 H73        31.5978   25.0185    4.4904 H         1 UNK         0.0888 
     74 H74        31.2289   26.2024    3.2223 H         1 UNK         0.0888 
     75 H75        30.2669   24.1276    2.2380 H         1 UNK         0.3017 
     76 H76        27.7603   23.1286    3.2788 H         1 UNK         0.0873 
     77 H77        28.9590   22.7137    0.4919 H         1 UNK         0.0745 
     78 H78        27.6739   21.7976    1.2208 H         1 UNK         0.0745 
     79 H79        30.7261   21.1253   -0.0453 H         1 UNK         0.0705 
     80 H80        31.7660   20.3561    1.1181 H         1 UNK         0.0705 
     81 H81        33.2888   21.6751    2.5685 H         1 UNK         0.1334 
     82 H82        34.2886   25.6079    1.1819 H         1 UNK         0.1417 
     83 H83        30.8983   23.5668   -0.4547 H         1 UNK         0.1562 
     84 H84        31.7285   25.6269   -1.5028 H         1 UNK         0.0748 
     85 H85        33.2333   26.3228   -0.9660 H         1 UNK         0.0748 
     86 H86        29.1592   26.7570    1.0312 H         1 UNK         0.0940 
     87 H87        29.6507   25.6618   -0.2196 H         1 UNK         0.0940 
     88 H88        29.5838   27.8042   -1.8251 H         1 UNK         0.0703 
     89 H89        26.8669   27.1952   -1.2327 H         1 UNK         0.3081 
     90 H90        26.0118   26.0228   -3.5795 H         1 UNK         0.0719 
     91 H91        27.2682   24.1359   -4.6237 H         1 UNK         0.0809 
     92 H92        27.1296   23.1969   -3.1418 H         1 UNK         0.0809 
     93 H93        25.6911   23.5905   -4.0828 H         1 UNK         0.0809 
     94 H94        26.1075   24.8602   -0.8987 H         1 UNK         0.2990 
     95 H95        22.6468   25.3914   -0.4437 H         1 UNK         0.0690 
     96 H96        22.5315   23.0990    0.5127 H         1 UNK         0.0788 
     97 H97        23.9789   22.6276   -0.3805 H         1 UNK         0.0788 
     98 H98        22.4989   23.0280   -1.2409 H         1 UNK         0.0788 
     99 H99        24.7284   24.3237    1.2447 H         1 UNK         0.2993 
    100 H100       26.4392   27.2613    1.9019 H         1 UNK         0.0949 
    101 H101       24.4637   27.8977    3.2992 H         1 UNK         0.0767 
    102 H102       24.3426   26.2456    3.8912 H         1 UNK         0.0767 
    103 H103       25.7541   27.2285    4.2812 H         1 UNK         0.0767 
    104 H104       26.7500   25.1982    3.5567 H         1 UNK         0.3013 
    105 H105       30.2646   29.6780   -0.5267 H         1 UNK         0.3121 
    106 H106       28.1039   31.5242    0.0931 H         1 UNK         0.0774 
    107 H107       29.9945   33.0698    0.6582 H         1 UNK         0.0815 
    108 H108       31.1443   31.7589    0.4399 H         1 UNK         0.0815 
    109 H109       30.2013   32.3474   -0.9284 H         1 UNK         0.0815 
    110 H110       30.3072   29.4714    1.9183 H         1 UNK         0.2987 
    111 H111       30.4734   28.7243    3.9540 H         1 UNK         0.0949 
    112 H112       28.5105   28.5797    5.4487 H         1 UNK         0.0806 
    113 H113       28.0976   28.1312    3.8039 H         1 UNK         0.0806 
    114 H114       27.6198   29.7063    4.4351 H         1 UNK         0.0806 
    115 H115       28.9425   31.9259    4.2326 H         1 UNK         0.3010 
    116 H116       29.9635   32.6569    6.7870 H         1 UNK         0.0829 
    117 H117       28.9916   34.3828    4.4463 H         1 UNK         0.0813 
    118 H118       28.0069   33.7643    5.7709 H         1 UNK         0.0813 
    119 H119       29.2523   34.9626    6.0863 H         1 UNK         0.0813 
    120 H120       32.0697   32.5841    7.1862 H         1 UNK         0.3038 
    121 H121       34.2561   32.8504    7.2046 H         1 UNK         0.0769 
    122 H122       35.2930   34.9239    6.3829 H         1 UNK         0.0811 
    123 H123       33.7529   35.3109    7.1294 H         1 UNK         0.0811 
    124 H124       33.9016   35.2807    5.3726 H         1 UNK         0.0811 
    125 H125       32.9950   31.1300    5.1630 H         1 UNK         0.3204 
    126 H126       35.3463   30.6315    3.4332 H         1 UNK         0.0748 
    127 H127       33.8138   30.4676    1.4363 H         1 UNK         0.0771 
    128 H128       32.4950   31.1228    2.4009 H         1 UNK         0.0771 
    129 H129       33.9088   32.1124    2.0507 H         1 UNK         0.0771 
    130 H130       35.4319   29.0386    5.2180 H         1 UNK         0.2980 
    131 H131       35.4637   26.9370    5.8193 H         1 UNK         0.0545 
    132 H132       32.5105   28.7371    6.0754 H         1 UNK         0.3459 
    133 H133       31.8491   27.7098    7.3143 H         1 UNK         0.3459 
    134 H134       33.5439   26.1418    3.5843 H         1 UNK         0.0616 
    135 H135       35.2468   26.3960    3.3496 H         1 UNK         0.0616 
    136 H136       35.9634   24.2006    2.3925 H         1 UNK         0.0634 
    137 H137       35.5184   22.6316    3.0042 H         1 UNK         0.0634 
@<TRIPOS>BOND
     1    1    2 1    
     2    1   72 1    
     3    1   73 1    
     4    1   74 1    
     5    2    3 2    
     6    2    4 am   BACKBONE|DICT|INTERRES
     7    4    5 1    
     8    4   75 1    
     9    5    6 1    
    10    5   35 1    
    11    5   76 1    
    12    6    7 1    
    13    6   77 1    
    14    6   78 1    
    15    7    8 1    
    16    8    9 1    
    17    8   79 1    
    18    8   80 1    
    19    9   10 ar   
    20    9   14 ar   
    21   10   11 ar   
    22   10   81 1    
    23   11   12 ar   
    24   11   71 1    
    25   12   13 ar   
    26   12   82 1    
    27   13   14 ar   
    28   13   15 1    
    29   14   83 1    
    30   15   16 1    
    31   15   84 1    
    32   15   85 1    
    33   16   17 1    
    34   17   18 1    
    35   17   86 1    
    36   17   87 1    
    37   18   19 1    
    38   18   37 1    
    39   18   88 1    
    40   19   20 am   BACKBONE|DICT|INTERRES
    41   19   89 1    
    42   20   21 2    
    43   20   22 1    
    44   22   23 1    
    45   22   24 1    
    46   22   90 1    
    47   23   91 1    
    48   23   92 1    
    49   23   93 1    
    50   24   25 am   BACKBONE|DICT|INTERRES
    51   24   94 1    
    52   25   26 2    
    53   25   27 1    
    54   27   28 1    
    55   27   29 1    
    56   27   95 1    
    57   28   96 1    
    58   28   97 1    
    59   28   98 1    
    60   29   30 am   BACKBONE|DICT|INTERRES
    61   29   99 1    
    62   30   31 2    
    63   30   32 1    
    64   32   33 1    
    65   32   34 1    
    66   32  100 1    
    67   33  101 1    
    68   33  102 1    
    69   33  103 1    
    70   34   35 am   BACKBONE|DICT|INTERRES
    71   34  104 1    
    72   35   36 2    
    73   37   38 2    
    74   37   39 am   BACKBONE|DICT|INTERRES
    75   39   40 1    
    76   39  105 1    
    77   40   41 1    
    78   40   42 1    
    79   40  106 1    
    80   41  107 1    
    81   41  108 1    
    82   41  109 1    
    83   42   43 2    
    84   42   44 am   BACKBONE|DICT|INTERRES
    85   44   45 1    
    86   44  110 1    
    87   45   46 1    
    88   45   47 1    
    89   45  111 1    
    90   46  112 1    
    91   46  113 1    
    92   46  114 1    
    93   47   48 2    
    94   47   49 am   BACKBONE|DICT|INTERRES
    95   49   50 1    
    96   49  115 1    
    97   50   51 1    
    98   50   52 1    
    99   50  116 1    
   100   51  117 1    
   101   51  118 1    
   102   51  119 1    
   103   52   53 2    
   104   52   54 am   BACKBONE|DICT|INTERRES
   105   54   55 1    
   106   54  120 1    
   107   55   56 1    
   108   55   57 1    
   109   55  121 1    
   110   56  122 1    
   111   56  123 1    
   112   56  124 1    
   113   57   58 2    
   114   57   59 am   BACKBONE|DICT|INTERRES
   115   59   60 1    
   116   59  125 1    
   117   60   61 1    
   118   60   62 1    
   119   60  126 1    
   120   61  127 1    
   121   61  128 1    
   122   61  129 1    
   123   62   63 2    
   124   62   64 am   BACKBONE|DICT|INTERRES
   125   64   65 1    
   126   64  130 1    
   127   65   66 1    
   128   65   69 1    
   129   65  131 1    
   130   66   67 am   BACKBONE|DICT|INTERRES
   131   66   68 2    
   132   67  132 1    
   133   67  133 1    
   134   69   70 1    
   135   69  134 1    
   136   69  135 1    
   137   70   71 1    
   138   71  136 1    
   139   71  137 1    
@<TRIPOS>SUBSTRUCTURE
     1 UNK         1 GROUP             0       ****    0 ROOT    
