@<TRIPOS>MOLECULE
3R136
137   139    1
SMALL
USER_CHARGES


@<TRIPOS>ATOM
      1 CA         32.6733   26.4913   -1.2322 C.3       0 UNK        -0.1979 
      2 C          31.4407   26.2036   -0.3892 C.2       0 UNK         0.4864 
      3 O          30.7654   27.1367    0.0420 O.2       0 UNK        -0.5359 
      4 N          31.1465   24.9191   -0.1553 N.am      1 UNK        -0.4318 
      5 CA         29.9688   24.4593    0.5781 C.3       1 UNK         0.0824 
      6 C6         30.2451   23.1126    1.2989 C.3       12 UNK        -0.0944 
      7 S7         28.9196   22.6546    2.4676 S.3       12 UNK        -0.2672 
      8 C8         29.6661   23.1192    4.0617 C.3       12 UNK         0.0333 
      9 C9         29.7626   24.6294    4.2201 C.ar      12 UNK        -0.0807 
     10 C10        30.9460   25.3028    3.9027 C.ar      12 UNK        -0.0894 
     11 C11        31.0428   26.6895    4.0628 C.ar      12 UNK        -0.0804 
     12 C12        29.9356   27.4034    4.5310 C.ar      12 UNK        -0.0824 
     13 C13        28.7485   26.7403    4.8560 C.ar      12 UNK        -0.0762 
     14 C14        28.6685   25.3536    4.6995 C.ar      12 UNK        -0.0782 
     15 C15        27.5597   27.5129    5.4067 C.3       12 UNK         0.0230 
     16 S16        26.1566   27.5228    4.2497 S.3       12 UNK        -0.2608 
     17 C17        26.7539   28.6331    2.9287 C.3       12 UNK        -0.0989 
     18 CA         27.0776   27.8916    1.5990 C.3       5 UNK         0.0716 
     19 N          25.9985   27.0287    1.0969 N.am      5 UNK        -0.4135 
     20 C          24.7415   27.3972    0.8040 C.2       4 UNK         0.5031 
     21 O          24.2851   28.5224    1.0113 O.2       4 UNK        -0.5229 
     22 CA         23.8257   26.3559    0.1331 C.3       4 UNK         0.0329 
     23 CB         23.5585   26.7493   -1.3300 C.3       4 UNK        -0.2001 
     24 N          24.3470   24.9893    0.1524 N.am      4 UNK        -0.4303 
     25 C          24.3792   24.1646    1.2049 C.2       3 UNK         0.5044 
     26 O          23.9648   24.4725    2.3221 O.2       3 UNK        -0.5152 
     27 CA         24.9811   22.7597    0.9871 C.3       3 UNK         0.0319 
     28 CB         23.8838   21.7394    0.6274 C.3       3 UNK        -0.2001 
     29 N          26.1018   22.7029    0.0327 N.am      3 UNK        -0.4354 
     30 C          26.1113   22.9539   -1.2878 C.2       2 UNK         0.4964 
     31 O          25.0992   23.2241   -1.9357 O.2       2 UNK        -0.5047 
     32 CA         27.4865   22.9609   -1.9900 C.3       2 UNK         0.0288 
     33 CB         27.5036   23.8719   -3.2361 C.3       2 UNK        -0.2113 
     34 N          28.6015   23.2985   -1.0930 N.am      2 UNK        -0.4145 
     35 C          28.7558   24.4211   -0.3707 C.2       1 UNK         0.5006 
     36 O          27.9819   25.3805   -0.4094 O.2       1 UNK        -0.5103 
     37 C          27.5119   28.8480    0.4690 C.2       5 UNK         0.5055 
     38 O          27.3829   30.0675    0.5986 O.2       5 UNK        -0.5220 
     39 N          27.9424   28.2546   -0.6541 N.am      6 UNK        -0.4450 
     40 CA         28.2599   28.9255   -1.9177 C.3       6 UNK         0.0367 
     41 CB         28.6402   27.8718   -2.9698 C.3       6 UNK        -0.1929 
     42 C          29.3468   30.0103   -1.8197 C.2       6 UNK         0.5070 
     43 O          29.2349   31.0273   -2.5060 O.2       6 UNK        -0.5237 
     44 N          30.3601   29.7898   -0.9753 N.am      7 UNK        -0.4739 
     45 CA         31.3963   30.7651   -0.6491 C.3       7 UNK         0.0276 
     46 CB         32.7782   30.1482   -0.9185 C.3       7 UNK        -0.1927 
     47 C          31.2729   31.1451    0.8290 C.2       7 UNK         0.5013 
     48 O          31.1102   30.2651    1.6777 O.2       7 UNK        -0.5193 
     49 N          31.4389   32.4391    1.1294 N.am      8 UNK        -0.4253 
     50 CA         31.4911   32.9867    2.4896 C.3       8 UNK         0.0242 
     51 CB         31.0272   34.4556    2.4561 C.3       8 UNK        -0.2000 
     52 C          32.8924   32.8182    3.1141 C.2       8 UNK         0.4948 
     53 O          33.4607   33.7807    3.6345 O.2       8 UNK        -0.5275 
     54 N          33.4386   31.6011    3.0195 N.am      9 UNK        -0.4246 
     55 CA         34.7344   31.2096    3.5676 C.3       9 UNK         0.0261 
     56 CB         35.2525   29.9943    2.7801 C.3       9 UNK        -0.1959 
     57 C          34.6189   30.8814    5.0631 C.2       9 UNK         0.5033 
     58 O          33.5305   30.5519    5.5439 O.2       9 UNK        -0.5390 
     59 N          35.7558   30.9250    5.7688 N.am      10 UNK        -0.4215 
     60 CA         35.8859   30.6012    7.1941 C.3       10 UNK         0.0240 
     61 CB         37.1576   31.2753    7.7444 C.3       10 UNK        -0.1982 
     62 C          35.8552   29.0804    7.4594 C.2       10 UNK         0.4970 
     63 O          36.7798   28.5384    8.0684 O.2       10 UNK        -0.4916 
     64 N          34.7993   28.4191    6.9763 N.am      11 UNK        -0.4279 
     65 CA         34.5197   26.9913    7.1642 C.3       11 UNK         0.1003 
     66 C          34.2006   26.6395    8.6432 C.2       11 UNK         0.5709 
     67 N          34.5588   25.4419    9.0860 N.am      11 UNK        -0.7358 
     68 O          33.6003   27.4222    9.3785 O.2       11 UNK        -0.4999 
     69 C69        33.3777   26.5204    6.2295 C.3       12 UNK        -0.0954 
     70 S70        33.8204   26.6406    4.4614 S.3       12 UNK        -0.2268 
     71 C71        32.3384   27.4282    3.7401 C.3       12 UNK         0.0203 
     72 H72        32.4325   27.2113   -2.0139 H         1 UNK         0.0888 
     73 H73        33.4627   26.9105   -0.6094 H         1 UNK         0.0888 
     74 H74        33.0588   25.5911   -1.7104 H         1 UNK         0.0888 
     75 H75        31.7358   24.1986   -0.5474 H         1 UNK         0.3017 
     76 H76        29.7366   25.1991    1.3476 H         1 UNK         0.0873 
     77 H77        30.3912   22.2933    0.5936 H         1 UNK         0.0745 
     78 H78        31.1855   23.1767    1.8474 H         1 UNK         0.0745 
     79 H79        29.0579   22.7049    4.8671 H         1 UNK         0.0705 
     80 H80        30.6497   22.6567    4.1587 H         1 UNK         0.0705 
     81 H81        31.7990   24.7478    3.5382 H         1 UNK         0.1334 
     82 H82        30.0031   28.4759    4.6535 H         1 UNK         0.1417 
     83 H83        27.7502   24.8390    4.9489 H         1 UNK         0.1562 
     84 H84        27.8347   28.5391    5.6559 H         1 UNK         0.0748 
     85 H85        27.2391   27.0497    6.3409 H         1 UNK         0.0748 
     86 H86        27.6379   29.1705    3.2766 H         1 UNK         0.0940 
     87 H87        25.9909   29.3973    2.7724 H         1 UNK         0.0940 
     88 H88        27.9286   27.2356    1.7930 H         1 UNK         0.0703 
     89 H89        26.2914   26.1012    0.8190 H         1 UNK         0.3081 
     90 H90        22.8757   26.3652    0.6715 H         1 UNK         0.0719 
     91 H91        23.1266   27.7490   -1.3958 H         1 UNK         0.0809 
     92 H92        24.4765   26.7508   -1.9196 H         1 UNK         0.0809 
     93 H93        22.8562   26.0634   -1.8041 H         1 UNK         0.0809 
     94 H94        24.6640   24.6066   -0.7343 H         1 UNK         0.2990 
     95 H95        25.4048   22.4583    1.9467 H         1 UNK         0.0690 
     96 H96        24.2919   20.7324    0.5408 H         1 UNK         0.0788 
     97 H97        23.3897   21.9837   -0.3134 H         1 UNK         0.0788 
     98 H98        23.1127   21.7113    1.3984 H         1 UNK         0.0788 
     99 H99        26.9984   22.5167    0.4610 H         1 UNK         0.2993 
    100 H100       27.6578   21.9366   -2.3248 H         1 UNK         0.0949 
    101 H101       27.2326   24.8975   -2.9866 H         1 UNK         0.0767 
    102 H102       28.4874   23.8883   -3.7052 H         1 UNK         0.0767 
    103 H103       26.7934   23.5230   -3.9868 H         1 UNK         0.0767 
    104 H104       29.2951   22.5722   -0.9817 H         1 UNK         0.3013 
    105 H105       28.0324   27.2405   -0.6460 H         1 UNK         0.3121 
    106 H106       27.3455   29.4202   -2.2511 H         1 UNK         0.0774 
    107 H107       29.4980   27.2777   -2.6529 H         1 UNK         0.0815 
    108 H108       27.8116   27.1911   -3.1615 H         1 UNK         0.0815 
    109 H109       28.8986   28.3408   -3.9202 H         1 UNK         0.0815 
    110 H110       30.3743   28.9255   -0.4341 H         1 UNK         0.2987 
    111 H111       31.2916   31.6641   -1.2604 H         1 UNK         0.0949 
    112 H112       32.8756   29.8290   -1.9561 H         1 UNK         0.0806 
    113 H113       33.5727   30.8698   -0.7236 H         1 UNK         0.0806 
    114 H114       32.9622   29.2834   -0.2802 H         1 UNK         0.0806 
    115 H115       31.6162   33.0930    0.3800 H         1 UNK         0.3010 
    116 H116       30.7929   32.4340    3.1224 H         1 UNK         0.0829 
    117 H117       31.6942   35.0769    1.8573 H         1 UNK         0.0813 
    118 H118       30.9996   34.8801    3.4607 H         1 UNK         0.0813 
    119 H119       30.0225   34.5450    2.0427 H         1 UNK         0.0813 
    120 H120       32.8599   30.8623    2.6356 H         1 UNK         0.3038 
    121 H121       35.4381   32.0358    3.4437 H         1 UNK         0.0769 
    122 H122       35.3730   30.2308    1.7227 H         1 UNK         0.0811 
    123 H123       34.5737   29.1450    2.8549 H         1 UNK         0.0811 
    124 H124       36.2249   29.6667    3.1499 H         1 UNK         0.0811 
    125 H125       36.6117   31.1628    5.2876 H         1 UNK         0.3204 
    126 H126       35.0324   31.0298    7.7241 H         1 UNK         0.0748 
    127 H127       38.0588   30.8941    7.2623 H         1 UNK         0.0771 
    128 H128       37.1293   32.3554    7.5982 H         1 UNK         0.0771 
    129 H129       37.2613   31.1000    8.8161 H         1 UNK         0.0771 
    130 H130       34.0933   28.9581    6.4842 H         1 UNK         0.2980 
    131 H131       35.4270   26.4497    6.8888 H         1 UNK         0.0545 
    132 H132       34.3481   25.1889   10.0388 H         1 UNK         0.3459 
    133 H133       35.0400   24.7874    8.4889 H         1 UNK         0.3459 
    134 H134       32.4720   27.0972    6.4259 H         1 UNK         0.0616 
    135 H135       33.1226   25.4771    6.4250 H         1 UNK         0.0616 
    136 H136       32.4531   27.4769    2.6563 H         1 UNK         0.0634 
    137 H137       32.2919   28.4602    4.0914 H         1 UNK         0.0634 
@<TRIPOS>BOND
     1    1    2 1    
     2    1   72 1    
     3    1   73 1    
     4    1   74 1    
     5    2    3 2    
     6    2    4 am   BACKBONE|DICT|INTERRES
     7    4    5 1    
     8    4   75 1    
     9    5    6 1    
    10    5   35 1    
    11    5   76 1    
    12    6    7 1    
    13    6   77 1    
    14    6   78 1    
    15    7    8 1    
    16    8    9 1    
    17    8   79 1    
    18    8   80 1    
    19    9   10 ar   
    20    9   14 ar   
    21   10   11 ar   
    22   10   81 1    
    23   11   12 ar   
    24   11   71 1    
    25   12   13 ar   
    26   12   82 1    
    27   13   14 ar   
    28   13   15 1    
    29   14   83 1    
    30   15   16 1    
    31   15   84 1    
    32   15   85 1    
    33   16   17 1    
    34   17   18 1    
    35   17   86 1    
    36   17   87 1    
    37   18   19 1    
    38   18   37 1    
    39   18   88 1    
    40   19   20 am   BACKBONE|DICT|INTERRES
    41   19   89 1    
    42   20   21 2    
    43   20   22 1    
    44   22   23 1    
    45   22   24 1    
    46   22   90 1    
    47   23   91 1    
    48   23   92 1    
    49   23   93 1    
    50   24   25 am   BACKBONE|DICT|INTERRES
    51   24   94 1    
    52   25   26 2    
    53   25   27 1    
    54   27   28 1    
    55   27   29 1    
    56   27   95 1    
    57   28   96 1    
    58   28   97 1    
    59   28   98 1    
    60   29   30 am   BACKBONE|DICT|INTERRES
    61   29   99 1    
    62   30   31 2    
    63   30   32 1    
    64   32   33 1    
    65   32   34 1    
    66   32  100 1    
    67   33  101 1    
    68   33  102 1    
    69   33  103 1    
    70   34   35 am   BACKBONE|DICT|INTERRES
    71   34  104 1    
    72   35   36 2    
    73   37   38 2    
    74   37   39 am   BACKBONE|DICT|INTERRES
    75   39   40 1    
    76   39  105 1    
    77   40   41 1    
    78   40   42 1    
    79   40  106 1    
    80   41  107 1    
    81   41  108 1    
    82   41  109 1    
    83   42   43 2    
    84   42   44 am   BACKBONE|DICT|INTERRES
    85   44   45 1    
    86   44  110 1    
    87   45   46 1    
    88   45   47 1    
    89   45  111 1    
    90   46  112 1    
    91   46  113 1    
    92   46  114 1    
    93   47   48 2    
    94   47   49 am   BACKBONE|DICT|INTERRES
    95   49   50 1    
    96   49  115 1    
    97   50   51 1    
    98   50   52 1    
    99   50  116 1    
   100   51  117 1    
   101   51  118 1    
   102   51  119 1    
   103   52   53 2    
   104   52   54 am   BACKBONE|DICT|INTERRES
   105   54   55 1    
   106   54  120 1    
   107   55   56 1    
   108   55   57 1    
   109   55  121 1    
   110   56  122 1    
   111   56  123 1    
   112   56  124 1    
   113   57   58 2    
   114   57   59 am   BACKBONE|DICT|INTERRES
   115   59   60 1    
   116   59  125 1    
   117   60   61 1    
   118   60   62 1    
   119   60  126 1    
   120   61  127 1    
   121   61  128 1    
   122   61  129 1    
   123   62   63 2    
   124   62   64 am   BACKBONE|DICT|INTERRES
   125   64   65 1    
   126   64  130 1    
   127   65   66 1    
   128   65   69 1    
   129   65  131 1    
   130   66   67 am   BACKBONE|DICT|INTERRES
   131   66   68 2    
   132   67  132 1    
   133   67  133 1    
   134   69   70 1    
   135   69  134 1    
   136   69  135 1    
   137   70   71 1    
   138   71  136 1    
   139   71  137 1    
@<TRIPOS>SUBSTRUCTURE
     1 UNK         1 GROUP             0       ****    0 ROOT    
