@<TRIPOS>MOLECULE
3R136
137   139    1
SMALL
USER_CHARGES


@<TRIPOS>ATOM
      1 CA         29.9228   20.5702    1.2896 C.3       0 UNK        -0.1979 
      2 C          29.6298   21.3170   -0.0030 C.2       0 UNK         0.4864 
      3 O          30.0834   20.8927   -1.0668 O.2       0 UNK        -0.5359 
      4 N          28.8701   22.4142    0.0860 N.am      1 UNK        -0.4318 
      5 CA         28.4153   23.2292   -1.0410 C.3       1 UNK         0.0824 
      6 C6         29.0568   24.6408   -1.0429 C.3       12 UNK        -0.0944 
      7 S7         30.8262   24.6020   -1.4850 S.3       12 UNK        -0.2672 
      8 C8         31.4918   25.9699   -0.4765 C.3       12 UNK         0.0333 
      9 C9         32.1487   25.5187    0.8260 C.ar      12 UNK        -0.0807 
     10 C10        33.3498   26.1110    1.2325 C.ar      12 UNK        -0.0894 
     11 C11        33.9605   25.7363    2.4329 C.ar      12 UNK        -0.0804 
     12 C12        33.3628   24.7604    3.2332 C.ar      12 UNK        -0.0824 
     13 C13        32.1568   24.1696    2.8506 C.ar      12 UNK        -0.0762 
     14 C14        31.5603   24.5470    1.6432 C.ar      12 UNK        -0.0782 
     15 C15        31.5066   23.1266    3.7499 C.3       12 UNK         0.0230 
     16 S16        29.7832   23.5365    4.1754 S.3       12 UNK        -0.2608 
     17 C17        29.9599   25.1755    4.9695 C.3       12 UNK        -0.0989 
     18 CA         29.4246   26.3311    4.0795 C.3       5 UNK         0.0716 
     19 N          28.0441   26.0706    3.6471 N.am      5 UNK        -0.4135 
     20 C          27.4044   26.6119    2.6034 C.2       4 UNK         0.5031 
     21 O          27.8880   27.4941    1.8860 O.2       4 UNK        -0.5229 
     22 CA         25.9851   26.0743    2.3617 C.3       4 UNK         0.0329 
     23 CB         24.9780   26.6459    3.3819 C.3       4 UNK        -0.2001 
     24 N          25.5398   26.2463    0.9744 N.am      4 UNK        -0.4303 
     25 C          25.1061   27.3531    0.3492 C.2       3 UNK         0.5044 
     26 O          24.9280   28.4366    0.9058 O.2       3 UNK        -0.5152 
     27 CA         24.8122   27.2473   -1.1642 C.3       3 UNK         0.0319 
     28 CB         25.6484   28.2631   -1.9610 C.3       3 UNK        -0.2001 
     29 N          25.0553   25.9129   -1.7188 N.am      3 UNK        -0.4354 
     30 C          24.2127   24.8736   -1.6400 C.2       2 UNK         0.4964 
     31 O          23.0848   24.9397   -1.1517 O.2       2 UNK        -0.5047 
     32 CA         24.7340   23.5217   -2.1640 C.3       2 UNK         0.0288 
     33 CB         24.2886   23.3007   -3.6189 C.3       2 UNK        -0.2113 
     34 N          26.1939   23.3732   -2.0745 N.am      2 UNK        -0.4145 
     35 C          26.8888   23.3478   -0.9275 C.2       1 UNK         0.5006 
     36 O          26.3724   23.4657    0.1872 O.2       1 UNK        -0.5103 
     37 C          29.5686   27.7149    4.7578 C.2       5 UNK         0.5055 
     38 O          30.0833   27.8136    5.8729 O.2       5 UNK        -0.5220 
     39 N          29.0717   28.7514    4.0786 N.am      6 UNK        -0.4450 
     40 CA         29.0262   30.1421    4.5219 C.3       6 UNK         0.0367 
     41 CB         27.8248   30.3599    5.4594 C.3       6 UNK        -0.1929 
     42 C          28.9716   31.1148    3.3344 C.2       6 UNK         0.5070 
     43 O          29.4330   32.2473    3.4745 O.2       6 UNK        -0.5237 
     44 N          28.4023   30.6852    2.1952 N.am      7 UNK        -0.4739 
     45 CA         28.2280   31.5234    1.0048 C.3       7 UNK         0.0276 
     46 CB         27.2135   30.8616    0.0619 C.3       7 UNK        -0.1927 
     47 C          29.5413   31.8134    0.2617 C.2       7 UNK         0.5013 
     48 O          29.7228   32.9298   -0.2259 O.2       7 UNK        -0.5193 
     49 N          30.4252   30.8086    0.1836 N.am      8 UNK        -0.4253 
     50 CA         31.7499   30.9269   -0.4330 C.3       8 UNK         0.0242 
     51 CB         32.3085   29.5250   -0.7263 C.3       8 UNK        -0.2000 
     52 C          32.7204   31.7284    0.4490 C.2       8 UNK         0.4948 
     53 O          33.4252   32.6049   -0.0528 O.2       8 UNK        -0.5275 
     54 N          32.7133   31.4143    1.7468 N.am      9 UNK        -0.4246 
     55 CA         33.4785   32.0237    2.8263 C.3       9 UNK         0.0261 
     56 CB         34.9841   31.7294    2.6694 C.3       9 UNK        -0.1959 
     57 C          32.9414   31.4215    4.1287 C.2       9 UNK         0.5033 
     58 O          32.3125   30.3589    4.0897 O.2       9 UNK        -0.5390 
     59 N          33.2171   32.0780    5.2620 N.am      10 UNK        -0.4215 
     60 CA         32.8423   31.6274    6.6075 C.3       10 UNK         0.0240 
     61 CB         32.8460   32.8380    7.5601 C.3       10 UNK        -0.1982 
     62 C          33.7473   30.4783    7.0994 C.2       10 UNK         0.4970 
     63 O          34.4789   30.6383    8.0785 O.2       10 UNK        -0.4916 
     64 N          33.7064   29.3564    6.3758 N.am      11 UNK        -0.4279 
     65 CA         34.4776   28.1329    6.6214 C.3       11 UNK         0.1003 
     66 C          34.1057   27.4310    7.9569 C.2       11 UNK         0.5709 
     67 N          35.0425   26.7048    8.5523 N.am      11 UNK        -0.7358 
     68 O          32.9771   27.5052    8.4398 O.2       11 UNK        -0.4999 
     69 C69        34.3490   27.1554    5.4257 C.3       12 UNK        -0.0954 
     70 S70        34.9786   27.8735    3.8697 S.3       12 UNK        -0.2268 
     71 C71        35.2671   26.3838    2.8667 C.3       12 UNK         0.0203 
     72 H72        29.5325   19.5545    1.2324 H         1 UNK         0.0888 
     73 H73        30.9986   20.5126    1.4525 H         1 UNK         0.0888 
     74 H74        29.4721   21.0575    2.1540 H         1 UNK         0.0888 
     75 H75        28.4489   22.6628    0.9714 H         1 UNK         0.3017 
     76 H76        28.6424   22.7319   -1.9867 H         1 UNK         0.0873 
     77 H77        28.5660   25.2905   -1.7704 H         1 UNK         0.0745 
     78 H78        28.9249   25.1219   -0.0713 H         1 UNK         0.0745 
     79 H79        32.2221   26.4953   -1.0936 H         1 UNK         0.0705 
     80 H80        30.7067   26.6935   -0.2531 H         1 UNK         0.0705 
     81 H81        33.8124   26.8707    0.6173 H         1 UNK         0.1334 
     82 H82        33.8343   24.4697    4.1619 H         1 UNK         0.1417 
     83 H83        30.6264   24.0916    1.3510 H         1 UNK         0.1562 
     84 H84        32.0712   23.0024    4.6755 H         1 UNK         0.0748 
     85 H85        31.5308   22.1603    3.2467 H         1 UNK         0.0748 
     86 H86        31.0077   25.3444    5.2256 H         1 UNK         0.0940 
     87 H87        29.4227   25.1460    5.9195 H         1 UNK         0.0940 
     88 H88        30.0473   26.3718    3.1838 H         1 UNK         0.0703 
     89 H89        27.5594   25.3702    4.1889 H         1 UNK         0.3081 
     90 H90        26.0243   24.9937    2.5093 H         1 UNK         0.0719 
     91 H91        25.2207   26.3231    4.3948 H         1 UNK         0.0809 
     92 H92        24.9754   27.7363    3.3887 H         1 UNK         0.0809 
     93 H93        23.9632   26.3082    3.1709 H         1 UNK         0.0809 
     94 H94        25.6500   25.4117    0.4108 H         1 UNK         0.2990 
     95 H95        23.7580   27.4965   -1.3029 H         1 UNK         0.0690 
     96 H96        25.4307   29.2829   -1.6419 H         1 UNK         0.0788 
     97 H97        25.4286   28.2100   -3.0275 H         1 UNK         0.0788 
     98 H98        26.7183   28.0974   -1.8285 H         1 UNK         0.0788 
     99 H99        25.9528   25.7652   -2.1559 H         1 UNK         0.2993 
    100 H100       24.2832   22.7422   -1.5454 H         1 UNK         0.0949 
    101 H101       24.5697   22.3090   -3.9742 H         1 UNK         0.0767 
    102 H102       23.2043   23.3798   -3.7113 H         1 UNK         0.0767 
    103 H103       24.7276   24.0374   -4.2931 H         1 UNK         0.0767 
    104 H104       26.6899   23.2752   -2.9495 H         1 UNK         0.3013 
    105 H105       28.6777   28.5371    3.1664 H         1 UNK         0.3121 
    106 H106       29.9381   30.3617    5.0790 H         1 UNK         0.0774 
    107 H107       27.7681   31.3991    5.7862 H         1 UNK         0.0815 
    108 H108       26.8820   30.1185    4.9671 H         1 UNK         0.0815 
    109 H109       27.9030   29.7442    6.3555 H         1 UNK         0.0815 
    110 H110       28.0046   29.7570    2.1425 H         1 UNK         0.2987 
    111 H111       27.8157   32.4841    1.3222 H         1 UNK         0.0949 
    112 H112       27.5287   29.8583   -0.2263 H         1 UNK         0.0806 
    113 H113       26.2332   30.7826    0.5318 H         1 UNK         0.0806 
    114 H114       27.0862   31.4427   -0.8526 H         1 UNK         0.0806 
    115 H115       30.1838   29.9248    0.6068 H         1 UNK         0.3010 
    116 H116       31.6451   31.4566   -1.3826 H         1 UNK         0.0829 
    117 H117       33.2981   29.5869   -1.1815 H         1 UNK         0.0813 
    118 H118       32.4039   28.9282    0.1814 H         1 UNK         0.0813 
    119 H119       31.6671   28.9836   -1.4218 H         1 UNK         0.0813 
    120 H120       32.0944   30.6851    2.0826 H         1 UNK         0.3038 
    121 H121       33.2982   33.1004    2.8268 H         1 UNK         0.0769 
    122 H122       35.1789   30.6577    2.6178 H         1 UNK         0.0811 
    123 H123       35.5546   32.1244    3.5106 H         1 UNK         0.0811 
    124 H124       35.3912   32.1849    1.7670 H         1 UNK         0.0811 
    125 H125       33.7685   32.9228    5.2105 H         1 UNK         0.3204 
    126 H126       31.8218   31.2391    6.5738 H         1 UNK         0.0748 
    127 H127       32.5436   32.5438    8.5661 H         1 UNK         0.0771 
    128 H128       33.8351   33.2917    7.6359 H         1 UNK         0.0771 
    129 H129       32.1483   33.6065    7.2267 H         1 UNK         0.0771 
    130 H130       33.1000   29.3460    5.5609 H         1 UNK         0.2980 
    131 H131       35.5238   28.4351    6.6992 H         1 UNK         0.0545 
    132 H132       34.8197   26.2302    9.4132 H         1 UNK         0.3459 
    133 H133       35.9693   26.6269    8.1632 H         1 UNK         0.3459 
    134 H134       33.3064   26.8664    5.2793 H         1 UNK         0.0616 
    135 H135       34.9040   26.2373    5.6265 H         1 UNK         0.0616 
    136 H136       35.8512   26.6624    1.9883 H         1 UNK         0.0634 
    137 H137       35.8799   25.6755    3.4263 H         1 UNK         0.0634 
@<TRIPOS>BOND
     1    1    2 1    
     2    1   72 1    
     3    1   73 1    
     4    1   74 1    
     5    2    3 2    
     6    2    4 am   BACKBONE|DICT|INTERRES
     7    4    5 1    
     8    4   75 1    
     9    5    6 1    
    10    5   35 1    
    11    5   76 1    
    12    6    7 1    
    13    6   77 1    
    14    6   78 1    
    15    7    8 1    
    16    8    9 1    
    17    8   79 1    
    18    8   80 1    
    19    9   10 ar   
    20    9   14 ar   
    21   10   11 ar   
    22   10   81 1    
    23   11   12 ar   
    24   11   71 1    
    25   12   13 ar   
    26   12   82 1    
    27   13   14 ar   
    28   13   15 1    
    29   14   83 1    
    30   15   16 1    
    31   15   84 1    
    32   15   85 1    
    33   16   17 1    
    34   17   18 1    
    35   17   86 1    
    36   17   87 1    
    37   18   19 1    
    38   18   37 1    
    39   18   88 1    
    40   19   20 am   BACKBONE|DICT|INTERRES
    41   19   89 1    
    42   20   21 2    
    43   20   22 1    
    44   22   23 1    
    45   22   24 1    
    46   22   90 1    
    47   23   91 1    
    48   23   92 1    
    49   23   93 1    
    50   24   25 am   BACKBONE|DICT|INTERRES
    51   24   94 1    
    52   25   26 2    
    53   25   27 1    
    54   27   28 1    
    55   27   29 1    
    56   27   95 1    
    57   28   96 1    
    58   28   97 1    
    59   28   98 1    
    60   29   30 am   BACKBONE|DICT|INTERRES
    61   29   99 1    
    62   30   31 2    
    63   30   32 1    
    64   32   33 1    
    65   32   34 1    
    66   32  100 1    
    67   33  101 1    
    68   33  102 1    
    69   33  103 1    
    70   34   35 am   BACKBONE|DICT|INTERRES
    71   34  104 1    
    72   35   36 2    
    73   37   38 2    
    74   37   39 am   BACKBONE|DICT|INTERRES
    75   39   40 1    
    76   39  105 1    
    77   40   41 1    
    78   40   42 1    
    79   40  106 1    
    80   41  107 1    
    81   41  108 1    
    82   41  109 1    
    83   42   43 2    
    84   42   44 am   BACKBONE|DICT|INTERRES
    85   44   45 1    
    86   44  110 1    
    87   45   46 1    
    88   45   47 1    
    89   45  111 1    
    90   46  112 1    
    91   46  113 1    
    92   46  114 1    
    93   47   48 2    
    94   47   49 am   BACKBONE|DICT|INTERRES
    95   49   50 1    
    96   49  115 1    
    97   50   51 1    
    98   50   52 1    
    99   50  116 1    
   100   51  117 1    
   101   51  118 1    
   102   51  119 1    
   103   52   53 2    
   104   52   54 am   BACKBONE|DICT|INTERRES
   105   54   55 1    
   106   54  120 1    
   107   55   56 1    
   108   55   57 1    
   109   55  121 1    
   110   56  122 1    
   111   56  123 1    
   112   56  124 1    
   113   57   58 2    
   114   57   59 am   BACKBONE|DICT|INTERRES
   115   59   60 1    
   116   59  125 1    
   117   60   61 1    
   118   60   62 1    
   119   60  126 1    
   120   61  127 1    
   121   61  128 1    
   122   61  129 1    
   123   62   63 2    
   124   62   64 am   BACKBONE|DICT|INTERRES
   125   64   65 1    
   126   64  130 1    
   127   65   66 1    
   128   65   69 1    
   129   65  131 1    
   130   66   67 am   BACKBONE|DICT|INTERRES
   131   66   68 2    
   132   67  132 1    
   133   67  133 1    
   134   69   70 1    
   135   69  134 1    
   136   69  135 1    
   137   70   71 1    
   138   71  136 1    
   139   71  137 1    
@<TRIPOS>SUBSTRUCTURE
     1 UNK         1 GROUP             0       ****    0 ROOT    
