@<TRIPOS>MOLECULE
3R136
137   139    1
SMALL
USER_CHARGES


@<TRIPOS>ATOM
      1 CA         24.6086   22.1533    3.1850 C.3       0 UNK        -0.1979 
      2 C          25.5295   22.5849    2.0539 C.2       0 UNK         0.4864 
      3 O          25.1437   23.4257    1.2411 O.2       0 UNK        -0.5359 
      4 N          26.7463   22.0233    2.0023 N.am      1 UNK        -0.4318 
      5 CA         27.7782   22.3173    0.9978 C.3       1 UNK         0.0824 
      6 C6         28.9905   21.3561    1.1081 C.3       12 UNK        -0.0944 
      7 S7         29.7904   21.3477    2.7552 S.3       12 UNK        -0.2672 
      8 C8         31.5540   21.5467    2.3414 C.3       12 UNK         0.0333 
      9 C9         31.9020   22.9558    1.8771 C.ar      12 UNK        -0.0807 
     10 C10        32.0202   23.9948    2.8055 C.ar      12 UNK        -0.0894 
     11 C11        32.3873   25.2797    2.3923 C.ar      12 UNK        -0.0804 
     12 C12        32.6416   25.5185    1.0390 C.ar      12 UNK        -0.0824 
     13 C13        32.5207   24.4911    0.0950 C.ar      12 UNK        -0.0762 
     14 C14        32.1512   23.2125    0.5254 C.ar      12 UNK        -0.0782 
     15 C15        32.8136   24.7238   -1.3881 C.3       12 UNK         0.0230 
     16 S16        32.3258   26.3674   -2.0169 S.3       12 UNK        -0.2608 
     17 C17        30.5441   26.3624   -1.6311 C.3       12 UNK        -0.0989 
     18 CA         29.7764   27.6199   -2.1106 C.3       5 UNK         0.0716 
     19 N          28.3457   27.4621   -1.8408 N.am      5 UNK        -0.4135 
     20 C          27.4438   27.0843   -2.7579 C.2       4 UNK         0.5031 
     21 O          27.6908   27.0231   -3.9638 O.2       4 UNK        -0.5229 
     22 CA         26.0411   26.6570   -2.2787 C.3       4 UNK         0.0329 
     23 CB         25.7012   25.2457   -2.7912 C.3       4 UNK        -0.2001 
     24 N          25.9085   26.6498   -0.8220 N.am      4 UNK        -0.4303 
     25 C          25.3788   27.6368   -0.0893 C.2       3 UNK         0.5044 
     26 O          24.9128   28.6719   -0.5658 O.2       3 UNK        -0.5152 
     27 CA         25.3866   27.4512    1.4409 C.3       3 UNK         0.0319 
     28 CB         24.0247   26.9293    1.9251 C.3       3 UNK        -0.2001 
     29 N          26.4462   26.5704    1.9492 N.am      3 UNK        -0.4354 
     30 C          27.7596   26.7724    1.7759 C.2       2 UNK         0.4964 
     31 O          28.2235   27.6761    1.0872 O.2       2 UNK        -0.5047 
     32 CA         28.7195   25.7717    2.4258 C.3       2 UNK         0.0288 
     33 CB         28.8488   26.0445    3.9329 C.3       2 UNK        -0.2113 
     34 N          28.3265   24.3829    2.2012 N.am      2 UNK        -0.4145 
     35 C          28.2190   23.7948    0.9993 C.2       1 UNK         0.5006 
     36 O          28.4146   24.3693   -0.0727 O.2       1 UNK        -0.5103 
     37 C          30.3200   28.9264   -1.5005 C.2       5 UNK         0.5055 
     38 O          30.8377   29.7704   -2.2344 O.2       5 UNK        -0.5220 
     39 N          30.2137   29.0661   -0.1757 N.am      6 UNK        -0.4450 
     40 CA         30.7994   30.1318    0.6299 C.3       6 UNK         0.0367 
     41 CB         32.3146   29.8938    0.7949 C.3       6 UNK        -0.1929 
     42 C          30.0375   30.1434    1.9605 C.2       6 UNK         0.5070 
     43 O          30.5151   29.5946    2.9579 O.2       6 UNK        -0.5237 
     44 N          28.8169   30.6943    1.9077 N.am      7 UNK        -0.4739 
     45 CA         27.8070   30.6696    2.9701 C.3       7 UNK         0.0276 
     46 CB         26.5510   31.4075    2.4795 C.3       7 UNK        -0.1927 
     47 C          28.2890   31.2520    4.3099 C.2       7 UNK         0.5013 
     48 O          29.1486   32.1350    4.3255 O.2       7 UNK        -0.5193 
     49 N          27.7174   30.7289    5.4054 N.am      8 UNK        -0.4253 
     50 CA         28.0835   30.9948    6.8053 C.3       8 UNK         0.0242 
     51 CB         27.8056   32.4650    7.1885 C.3       8 UNK        -0.2000 
     52 C          29.5201   30.5435    7.1474 C.2       8 UNK         0.4948 
     53 O          30.1601   31.1422    8.0135 O.2       8 UNK        -0.5275 
     54 N          29.9878   29.4888    6.4587 N.am      9 UNK        -0.4246 
     55 CA         31.3208   28.8814    6.5440 C.3       9 UNK         0.0261 
     56 CB         31.5263   28.1882    7.9073 C.3       9 UNK        -0.1959 
     57 C          32.4550   29.8625    6.1890 C.2       9 UNK         0.5033 
     58 O          33.5184   29.8328    6.8133 O.2       9 UNK        -0.5390 
     59 N          32.2299   30.6941    5.1603 N.am      10 UNK        -0.4215 
     60 CA         33.1977   31.6751    4.6535 C.3       10 UNK         0.0240 
     61 CB         32.4815   32.6838    3.7405 C.3       10 UNK        -0.1982 
     62 C          34.4247   31.0456    3.9630 C.2       10 UNK         0.4970 
     63 O          35.3945   31.7570    3.6983 O.2       10 UNK        -0.4916 
     64 N          34.3797   29.7291    3.7189 N.am      11 UNK        -0.4279 
     65 CA         35.5288   28.8912    3.3535 C.3       11 UNK         0.1003 
     66 C          36.6350   28.7904    4.4486 C.2       11 UNK         0.5709 
     67 N          36.3579   29.1066    5.7102 N.am      11 UNK        -0.7358 
     68 O          37.7683   28.4286    4.1410 O.2       11 UNK        -0.4999 
     69 C69        35.0704   27.4885    2.8704 C.3       12 UNK        -0.0954 
     70 S70        34.1435   26.5409    4.1338 S.3       12 UNK        -0.2268 
     71 C71        32.4824   26.4113    3.4061 C.3       12 UNK         0.0203 
     72 H72        23.6993   21.7110    2.7788 H         1 UNK         0.0888 
     73 H73        25.0804   21.4194    3.8382 H         1 UNK         0.0888 
     74 H74        24.3277   23.0152    3.7895 H         1 UNK         0.0888 
     75 H75        27.0099   21.3429    2.7015 H         1 UNK         0.3017 
     76 H76        27.3166   22.1427    0.0233 H         1 UNK         0.0873 
     77 H77        29.7257   21.5855    0.3351 H         1 UNK         0.0745 
     78 H78        28.6625   20.3369    0.8981 H         1 UNK         0.0745 
     79 H79        31.8332   20.8080    1.5884 H         1 UNK         0.0705 
     80 H80        32.1456   21.3097    3.2269 H         1 UNK         0.0705 
     81 H81        31.8283   23.8007    3.8520 H         1 UNK         0.1334 
     82 H82        32.9261   26.5093    0.7170 H         1 UNK         0.1417 
     83 H83        32.0714   22.4088   -0.1940 H         1 UNK         0.1562 
     84 H84        32.3123   23.9679   -1.9949 H         1 UNK         0.0748 
     85 H85        33.8835   24.5924   -1.5539 H         1 UNK         0.0748 
     86 H86        30.4121   26.2291   -0.5563 H         1 UNK         0.0940 
     87 H87        30.1090   25.4733   -2.0911 H         1 UNK         0.0940 
     88 H88        29.9373   27.7068   -3.1873 H         1 UNK         0.0703 
     89 H89        28.0636   27.5270   -0.8682 H         1 UNK         0.3081 
     90 H90        25.3252   27.3568   -2.7148 H         1 UNK         0.0719 
     91 H91        25.7248   25.2038   -3.8810 H         1 UNK         0.0809 
     92 H92        26.4087   24.5027   -2.4197 H         1 UNK         0.0809 
     93 H93        24.7018   24.9409   -2.4802 H         1 UNK         0.0809 
     94 H94        26.2821   25.8423   -0.3399 H         1 UNK         0.2990 
     95 H95        25.5479   28.4374    1.8802 H         1 UNK         0.0690 
     96 H96        23.2146   27.5777    1.5879 H         1 UNK         0.0788 
     97 H97        23.9761   26.8929    3.0135 H         1 UNK         0.0788 
     98 H98        23.8202   25.9273    1.5452 H         1 UNK         0.0788 
     99 H99        26.1482   25.7609    2.4743 H         1 UNK         0.2993 
    100 H100       29.6979   25.9117    1.9634 H         1 UNK         0.0949 
    101 H101       29.5494   25.3539    4.4022 H         1 UNK         0.0767 
    102 H102       29.2187   27.0553    4.1118 H         1 UNK         0.0767 
    103 H103       27.8927   25.9480    4.4487 H         1 UNK         0.0767 
    104 H104       28.1582   23.8149    3.0186 H         1 UNK         0.3013 
    105 H105       29.6489   28.4008    0.3527 H         1 UNK         0.3121 
    106 H106       30.6451   31.0927    0.1346 H         1 UNK         0.0774 
    107 H107       32.5224   28.9397    1.2758 H         1 UNK         0.0815 
    108 H108       32.8254   29.8954   -0.1679 H         1 UNK         0.0815 
    109 H109       32.7737   30.6745    1.3981 H         1 UNK         0.0815 
    110 H110       28.5258   31.1081    1.0344 H         1 UNK         0.2987 
    111 H111       27.5521   29.6203    3.1312 H         1 UNK         0.0949 
    112 H112       25.7564   31.3746    3.2262 H         1 UNK         0.0806 
    113 H113       26.7589   32.4581    2.2721 H         1 UNK         0.0806 
    114 H114       26.1543   30.9571    1.5691 H         1 UNK         0.0806 
    115 H115       26.9949   30.0330    5.2777 H         1 UNK         0.3010 
    116 H116       27.4259   30.3718    7.4135 H         1 UNK         0.0829 
    117 H117       28.4879   33.1520    6.6871 H         1 UNK         0.0813 
    118 H118       26.7870   32.7567    6.9331 H         1 UNK         0.0813 
    119 H119       27.9254   32.6180    8.2617 H         1 UNK         0.0813 
    120 H120       29.3793   29.0931    5.7566 H         1 UNK         0.3038 
    121 H121       31.3483   28.1065    5.7772 H         1 UNK         0.0769 
    122 H122       31.5657   28.9081    8.7254 H         1 UNK         0.0811 
    123 H123       32.4621   27.6278    7.9229 H         1 UNK         0.0811 
    124 H124       30.7238   27.4818    8.1189 H         1 UNK         0.0811 
    125 H125       31.3547   30.6142    4.6513 H         1 UNK         0.3204 
    126 H126       33.5833   32.2279    5.5128 H         1 UNK         0.0748 
    127 H127       33.1829   33.4052    3.3192 H         1 UNK         0.0771 
    128 H128       31.9721   32.1972    2.9110 H         1 UNK         0.0771 
    129 H129       31.7338   33.2500    4.2964 H         1 UNK         0.0771 
    130 H130       33.5418   29.2301    3.9737 H         1 UNK         0.2980 
    131 H131       36.0054   29.3793    2.5014 H         1 UNK         0.0545 
    132 H132       35.4224   29.3804    5.9862 H         1 UNK         0.3459 
    133 H133       37.0853   29.0400    6.4038 H         1 UNK         0.3459 
    134 H134       35.9295   26.8914    2.5596 H         1 UNK         0.0616 
    135 H135       34.4606   27.6017    1.9757 H         1 UNK         0.0616 
    136 H136       31.7756   26.2328    4.2161 H         1 UNK         0.0634 
    137 H137       32.1896   27.3607    2.9581 H         1 UNK         0.0634 
@<TRIPOS>BOND
     1    1    2 1    
     2    1   72 1    
     3    1   73 1    
     4    1   74 1    
     5    2    3 2    
     6    2    4 am   BACKBONE|DICT|INTERRES
     7    4    5 1    
     8    4   75 1    
     9    5    6 1    
    10    5   35 1    
    11    5   76 1    
    12    6    7 1    
    13    6   77 1    
    14    6   78 1    
    15    7    8 1    
    16    8    9 1    
    17    8   79 1    
    18    8   80 1    
    19    9   10 ar   
    20    9   14 ar   
    21   10   11 ar   
    22   10   81 1    
    23   11   12 ar   
    24   11   71 1    
    25   12   13 ar   
    26   12   82 1    
    27   13   14 ar   
    28   13   15 1    
    29   14   83 1    
    30   15   16 1    
    31   15   84 1    
    32   15   85 1    
    33   16   17 1    
    34   17   18 1    
    35   17   86 1    
    36   17   87 1    
    37   18   19 1    
    38   18   37 1    
    39   18   88 1    
    40   19   20 am   BACKBONE|DICT|INTERRES
    41   19   89 1    
    42   20   21 2    
    43   20   22 1    
    44   22   23 1    
    45   22   24 1    
    46   22   90 1    
    47   23   91 1    
    48   23   92 1    
    49   23   93 1    
    50   24   25 am   BACKBONE|DICT|INTERRES
    51   24   94 1    
    52   25   26 2    
    53   25   27 1    
    54   27   28 1    
    55   27   29 1    
    56   27   95 1    
    57   28   96 1    
    58   28   97 1    
    59   28   98 1    
    60   29   30 am   BACKBONE|DICT|INTERRES
    61   29   99 1    
    62   30   31 2    
    63   30   32 1    
    64   32   33 1    
    65   32   34 1    
    66   32  100 1    
    67   33  101 1    
    68   33  102 1    
    69   33  103 1    
    70   34   35 am   BACKBONE|DICT|INTERRES
    71   34  104 1    
    72   35   36 2    
    73   37   38 2    
    74   37   39 am   BACKBONE|DICT|INTERRES
    75   39   40 1    
    76   39  105 1    
    77   40   41 1    
    78   40   42 1    
    79   40  106 1    
    80   41  107 1    
    81   41  108 1    
    82   41  109 1    
    83   42   43 2    
    84   42   44 am   BACKBONE|DICT|INTERRES
    85   44   45 1    
    86   44  110 1    
    87   45   46 1    
    88   45   47 1    
    89   45  111 1    
    90   46  112 1    
    91   46  113 1    
    92   46  114 1    
    93   47   48 2    
    94   47   49 am   BACKBONE|DICT|INTERRES
    95   49   50 1    
    96   49  115 1    
    97   50   51 1    
    98   50   52 1    
    99   50  116 1    
   100   51  117 1    
   101   51  118 1    
   102   51  119 1    
   103   52   53 2    
   104   52   54 am   BACKBONE|DICT|INTERRES
   105   54   55 1    
   106   54  120 1    
   107   55   56 1    
   108   55   57 1    
   109   55  121 1    
   110   56  122 1    
   111   56  123 1    
   112   56  124 1    
   113   57   58 2    
   114   57   59 am   BACKBONE|DICT|INTERRES
   115   59   60 1    
   116   59  125 1    
   117   60   61 1    
   118   60   62 1    
   119   60  126 1    
   120   61  127 1    
   121   61  128 1    
   122   61  129 1    
   123   62   63 2    
   124   62   64 am   BACKBONE|DICT|INTERRES
   125   64   65 1    
   126   64  130 1    
   127   65   66 1    
   128   65   69 1    
   129   65  131 1    
   130   66   67 am   BACKBONE|DICT|INTERRES
   131   66   68 2    
   132   67  132 1    
   133   67  133 1    
   134   69   70 1    
   135   69  134 1    
   136   69  135 1    
   137   70   71 1    
   138   71  136 1    
   139   71  137 1    
@<TRIPOS>SUBSTRUCTURE
     1 UNK         1 GROUP             0       ****    0 ROOT    
