@<TRIPOS>MOLECULE
3R136
137   139    1
SMALL
USER_CHARGES


@<TRIPOS>ATOM
      1 CA         23.9208   21.7655    0.6755 C.3       0 UNK        -0.1979 
      2 C          25.1639   21.6786   -0.1971 C.2       0 UNK         0.4864 
      3 O          25.0504   21.5585   -1.4186 O.2       0 UNK        -0.5359 
      4 N          26.3533   21.7474    0.4157 N.am      1 UNK        -0.4318 
      5 CA         27.6642   21.7109   -0.2435 C.3       1 UNK         0.0824 
      6 C6         28.7565   21.2554    0.7614 C.3       12 UNK        -0.0944 
      7 S7         30.2802   20.6772   -0.0524 S.3       12 UNK        -0.2672 
      8 C8         31.4558   20.7184    1.3471 C.3       12 UNK         0.0333 
      9 C9         31.8124   22.1121    1.8729 C.ar      12 UNK        -0.0807 
     10 C10        31.7933   23.2467    1.0518 C.ar      12 UNK        -0.0894 
     11 C11        32.1682   24.5001    1.5446 C.ar      12 UNK        -0.0804 
     12 C12        32.6055   24.6026    2.8696 C.ar      12 UNK        -0.0824 
     13 C13        32.5988   23.4930    3.7189 C.ar      12 UNK        -0.0762 
     14 C14        32.2078   22.2508    3.2082 C.ar      12 UNK        -0.0782 
     15 C15        33.0262   23.6111    5.1830 C.3       12 UNK         0.0230 
     16 S16        32.5414   25.1769    6.0007 S.3       12 UNK        -0.2608 
     17 C17        30.7325   25.1935    5.7582 C.3       12 UNK        -0.0989 
     18 CA         30.2735   26.3531    4.8159 C.3       5 UNK         0.0716 
     19 N          29.4627   25.8787    3.6903 N.am      5 UNK        -0.4135 
     20 C          28.2557   25.3054    3.7804 C.2       4 UNK         0.5031 
     21 O          27.6931   25.0603    4.8488 O.2       4 UNK        -0.5229 
     22 CA         27.5625   24.9424    2.4570 C.3       4 UNK         0.0329 
     23 CB         26.0249   24.9066    2.5839 C.3       4 UNK        -0.2001 
     24 N          27.9503   25.7642    1.3042 N.am      4 UNK        -0.4303 
     25 C          27.7965   27.0881    1.1426 C.2       3 UNK         0.5044 
     26 O          27.5311   27.8637    2.0650 O.2       3 UNK        -0.5152 
     27 CA         27.9315   27.6410   -0.2954 C.3       3 UNK         0.0319 
     28 CB         29.1763   28.5270   -0.4659 C.3       3 UNK        -0.2001 
     29 N          27.9424   26.6067   -1.3355 N.am      3 UNK        -0.4354 
     30 C          26.8880   25.8685   -1.7088 C.2       2 UNK         0.4964 
     31 O          25.7428   26.0464   -1.2927 O.2       2 UNK        -0.5047 
     32 CA         27.1621   24.6962   -2.6702 C.3       2 UNK         0.0288 
     33 CB         28.4459   24.8601   -3.5171 C.3       2 UNK        -0.2113 
     34 N          27.1713   23.4193   -1.9451 N.am      2 UNK        -0.4145 
     35 C          27.9718   23.0652   -0.9276 C.2       1 UNK         0.5006 
     36 O          28.8756   23.7845   -0.4972 O.2       1 UNK        -0.5103 
     37 C          29.6146   27.5419    5.5594 C.2       5 UNK         0.5055 
     38 O          29.9091   27.7619    6.7354 O.2       5 UNK        -0.5220 
     39 N          28.7438   28.2938    4.8681 N.am      6 UNK        -0.4450 
     40 CA         28.0009   29.4275    5.4154 C.3       6 UNK         0.0367 
     41 CB         26.5187   29.0447    5.5707 C.3       6 UNK        -0.1929 
     42 C          28.1697   30.6614    4.5244 C.2       6 UNK         0.5070 
     43 O          28.6481   31.6921    5.0021 O.2       6 UNK        -0.5237 
     44 N          27.7956   30.5422    3.2435 N.am      7 UNK        -0.4739 
     45 CA         27.9022   31.6245    2.2622 C.3       7 UNK         0.0276 
     46 CB         27.0265   31.2935    1.0438 C.3       7 UNK        -0.1927 
     47 C          29.3614   31.8899    1.8540 C.2       7 UNK         0.5013 
     48 O          30.2338   31.0508    2.0936 O.2       7 UNK        -0.5193 
     49 N          29.5975   33.0692    1.2603 N.am      8 UNK        -0.4253 
     50 CA         30.9075   33.5876    0.8388 C.3       8 UNK         0.0242 
     51 CB         31.4580   32.7715   -0.3518 C.3       8 UNK        -0.2000 
     52 C          31.9065   33.6871    2.0100 C.2       8 UNK         0.4948 
     53 O          33.0684   33.3071    1.8603 O.2       8 UNK        -0.5275 
     54 N          31.4131   34.1634    3.1655 N.am      9 UNK        -0.4246 
     55 CA         32.1117   34.2551    4.4551 C.3       9 UNK         0.0261 
     56 CB         33.2151   35.3340    4.4018 C.3       9 UNK        -0.1959 
     57 C          32.6293   32.8837    4.9357 C.2       9 UNK         0.5033 
     58 O          33.8006   32.7598    5.2989 O.2       9 UNK        -0.5390 
     59 N          31.7376   31.8815    4.9021 N.am      10 UNK        -0.4215 
     60 CA         31.9874   30.4631    5.1744 C.3       10 UNK         0.0240 
     61 CB         32.3341   30.2306    6.6604 C.3       10 UNK        -0.1982 
     62 C          33.0077   29.8455    4.2000 C.2       10 UNK         0.4970 
     63 O          33.9903   29.2431    4.6370 O.2       10 UNK        -0.4916 
     64 N          32.7384   30.0043    2.8970 N.am      11 UNK        -0.4279 
     65 CA         33.5421   29.4867    1.7772 C.3       11 UNK         0.1003 
     66 C          34.9849   30.0733    1.7238 C.2       11 UNK         0.5709 
     67 N          35.1554   31.3730    1.9268 N.am      11 UNK        -0.7358 
     68 O          35.9589   29.3619    1.4851 O.2       11 UNK        -0.4999 
     69 C69        33.5020   27.9335    1.6806 C.3       12 UNK        -0.0954 
     70 S70        31.8034   27.3021    1.4676 S.3       12 UNK        -0.2268 
     71 C71        32.0923   25.7116    0.6158 C.3       12 UNK         0.0203 
     72 H72        23.3136   20.8689    0.5536 H         1 UNK         0.0888 
     73 H73        24.1693   21.8662    1.7319 H         1 UNK         0.0888 
     74 H74        23.3198   22.6270    0.3854 H         1 UNK         0.0888 
     75 H75        26.3769   21.8519    1.4196 H         1 UNK         0.3017 
     76 H76        27.6136   20.9602   -1.0357 H         1 UNK         0.0873 
     77 H77        28.3868   20.4198    1.3581 H         1 UNK         0.0745 
     78 H78        28.9968   22.0456    1.4735 H         1 UNK         0.0745 
     79 H79        31.0456   20.1078    2.1532 H         1 UNK         0.0705 
     80 H80        32.3782   20.2298    1.0311 H         1 UNK         0.0705 
     81 H81        31.4830   23.1609    0.0197 H         1 UNK         0.1334 
     82 H82        32.9320   25.5542    3.2589 H         1 UNK         0.1417 
     83 H83        32.2240   21.3816    3.8521 H         1 UNK         0.1562 
     84 H84        34.1110   23.5127    5.2362 H         1 UNK         0.0748 
     85 H85        32.6132   22.7848    5.7638 H         1 UNK         0.0748 
     86 H86        30.2482   25.2358    6.7355 H         1 UNK         0.0940 
     87 H87        30.4350   24.2246    5.3547 H         1 UNK         0.0940 
     88 H88        31.1549   26.7921    4.3480 H         1 UNK         0.0703 
     89 H89        29.8509   26.0332    2.7695 H         1 UNK         0.3081 
     90 H90        27.8939   23.9313    2.2255 H         1 UNK         0.0719 
     91 H91        25.5552   24.6266    1.6408 H         1 UNK         0.0809 
     92 H92        25.7058   24.1805    3.3326 H         1 UNK         0.0809 
     93 H93        25.6256   25.8773    2.8805 H         1 UNK         0.0809 
     94 H94        28.2690   25.2280    0.4995 H         1 UNK         0.2990 
     95 H95        27.0511   28.2660   -0.4563 H         1 UNK         0.0690 
     96 H96        29.0462   29.2271   -1.2911 H         1 UNK         0.0788 
     97 H97        30.0674   27.9385   -0.6781 H         1 UNK         0.0788 
     98 H98        29.3815   29.1164    0.4281 H         1 UNK         0.0788 
     99 H99        28.8443   26.3572   -1.7154 H         1 UNK         0.2993 
    100 H100       26.3154   24.6604   -3.3577 H         1 UNK         0.0949 
    101 H101       28.4397   25.8063   -4.0601 H         1 UNK         0.0767 
    102 H102       29.3555   24.8281   -2.9166 H         1 UNK         0.0767 
    103 H103       28.5214   24.0670   -4.2611 H         1 UNK         0.0767 
    104 H104       26.3958   22.7922   -2.1440 H         1 UNK         0.3013 
    105 H105       28.5536   28.0618    3.8985 H         1 UNK         0.3121 
    106 H106       28.3841   29.6964    6.4022 H         1 UNK         0.0774 
    107 H107       26.3979   28.2288    6.2836 H         1 UNK         0.0815 
    108 H108       25.9328   29.8878    5.9392 H         1 UNK         0.0815 
    109 H109       26.0782   28.7253    4.6252 H         1 UNK         0.0815 
    110 H110       27.4942   29.6382    2.8916 H         1 UNK         0.2987 
    111 H111       27.5140   32.5356    2.7234 H         1 UNK         0.0949 
    112 H112       27.0434   32.1006    0.3105 H         1 UNK         0.0806 
    113 H113       27.3623   30.3911    0.5392 H         1 UNK         0.0806 
    114 H114       25.9863   31.1442    1.3336 H         1 UNK         0.0806 
    115 H115       28.8148   33.6904    1.1055 H         1 UNK         0.3010 
    116 H116       30.7444   34.6089    0.4912 H         1 UNK         0.0829 
    117 H117       30.7445   32.7410   -1.1751 H         1 UNK         0.0813 
    118 H118       32.3778   33.2132   -0.7370 H         1 UNK         0.0813 
    119 H119       31.6859   31.7435   -0.0692 H         1 UNK         0.0813 
    120 H120       30.4406   34.4377    3.1779 H         1 UNK         0.3038 
    121 H121       31.3715   34.5772    5.1893 H         1 UNK         0.0769 
    122 H122       34.0154   35.0622    3.7126 H         1 UNK         0.0811 
    123 H123       33.6679   35.4775    5.3836 H         1 UNK         0.0811 
    124 H124       32.8140   36.2972    4.0867 H         1 UNK         0.0811 
    125 H125       30.7929   32.0930    4.6006 H         1 UNK         0.3204 
    126 H126       31.0458   29.9556    4.9763 H         1 UNK         0.0748 
    127 H127       32.4218   29.1646    6.8754 H         1 UNK         0.0771 
    128 H128       33.2797   30.6967    6.9380 H         1 UNK         0.0771 
    129 H129       31.5567   30.6271    7.3134 H         1 UNK         0.0771 
    130 H130       31.8861   30.4928    2.6274 H         1 UNK         0.2980 
    131 H131       33.0615   29.8682    0.8760 H         1 UNK         0.0545 
    132 H132       34.3578   31.9930    2.0547 H         1 UNK         0.3459 
    133 H133       36.0851   31.7577    1.8954 H         1 UNK         0.3459 
    134 H134       34.0976   27.6007    0.8294 H         1 UNK         0.0616 
    135 H135       33.9503   27.4785    2.5642 H         1 UNK         0.0616 
    136 H136       31.2663   25.5703   -0.0834 H         1 UNK         0.0634 
    137 H137       32.9977   25.7605    0.0107 H         1 UNK         0.0634 
@<TRIPOS>BOND
     1    1    2 1    
     2    1   72 1    
     3    1   73 1    
     4    1   74 1    
     5    2    3 2    
     6    2    4 am   BACKBONE|DICT|INTERRES
     7    4    5 1    
     8    4   75 1    
     9    5    6 1    
    10    5   35 1    
    11    5   76 1    
    12    6    7 1    
    13    6   77 1    
    14    6   78 1    
    15    7    8 1    
    16    8    9 1    
    17    8   79 1    
    18    8   80 1    
    19    9   10 ar   
    20    9   14 ar   
    21   10   11 ar   
    22   10   81 1    
    23   11   12 ar   
    24   11   71 1    
    25   12   13 ar   
    26   12   82 1    
    27   13   14 ar   
    28   13   15 1    
    29   14   83 1    
    30   15   16 1    
    31   15   84 1    
    32   15   85 1    
    33   16   17 1    
    34   17   18 1    
    35   17   86 1    
    36   17   87 1    
    37   18   19 1    
    38   18   37 1    
    39   18   88 1    
    40   19   20 am   BACKBONE|DICT|INTERRES
    41   19   89 1    
    42   20   21 2    
    43   20   22 1    
    44   22   23 1    
    45   22   24 1    
    46   22   90 1    
    47   23   91 1    
    48   23   92 1    
    49   23   93 1    
    50   24   25 am   BACKBONE|DICT|INTERRES
    51   24   94 1    
    52   25   26 2    
    53   25   27 1    
    54   27   28 1    
    55   27   29 1    
    56   27   95 1    
    57   28   96 1    
    58   28   97 1    
    59   28   98 1    
    60   29   30 am   BACKBONE|DICT|INTERRES
    61   29   99 1    
    62   30   31 2    
    63   30   32 1    
    64   32   33 1    
    65   32   34 1    
    66   32  100 1    
    67   33  101 1    
    68   33  102 1    
    69   33  103 1    
    70   34   35 am   BACKBONE|DICT|INTERRES
    71   34  104 1    
    72   35   36 2    
    73   37   38 2    
    74   37   39 am   BACKBONE|DICT|INTERRES
    75   39   40 1    
    76   39  105 1    
    77   40   41 1    
    78   40   42 1    
    79   40  106 1    
    80   41  107 1    
    81   41  108 1    
    82   41  109 1    
    83   42   43 2    
    84   42   44 am   BACKBONE|DICT|INTERRES
    85   44   45 1    
    86   44  110 1    
    87   45   46 1    
    88   45   47 1    
    89   45  111 1    
    90   46  112 1    
    91   46  113 1    
    92   46  114 1    
    93   47   48 2    
    94   47   49 am   BACKBONE|DICT|INTERRES
    95   49   50 1    
    96   49  115 1    
    97   50   51 1    
    98   50   52 1    
    99   50  116 1    
   100   51  117 1    
   101   51  118 1    
   102   51  119 1    
   103   52   53 2    
   104   52   54 am   BACKBONE|DICT|INTERRES
   105   54   55 1    
   106   54  120 1    
   107   55   56 1    
   108   55   57 1    
   109   55  121 1    
   110   56  122 1    
   111   56  123 1    
   112   56  124 1    
   113   57   58 2    
   114   57   59 am   BACKBONE|DICT|INTERRES
   115   59   60 1    
   116   59  125 1    
   117   60   61 1    
   118   60   62 1    
   119   60  126 1    
   120   61  127 1    
   121   61  128 1    
   122   61  129 1    
   123   62   63 2    
   124   62   64 am   BACKBONE|DICT|INTERRES
   125   64   65 1    
   126   64  130 1    
   127   65   66 1    
   128   65   69 1    
   129   65  131 1    
   130   66   67 am   BACKBONE|DICT|INTERRES
   131   66   68 2    
   132   67  132 1    
   133   67  133 1    
   134   69   70 1    
   135   69  134 1    
   136   69  135 1    
   137   70   71 1    
   138   71  136 1    
   139   71  137 1    
@<TRIPOS>SUBSTRUCTURE
     1 UNK         1 GROUP             0       ****    0 ROOT    
