@<TRIPOS>MOLECULE
3R136
137   139    1
SMALL
USER_CHARGES


@<TRIPOS>ATOM
      1 CA         25.1238   27.0330    4.3491 C.3       0 UNK        -0.1979 
      2 C          25.2859   25.6048    3.8498 C.2       0 UNK         0.4864 
      3 O          24.5688   24.7150    4.3106 O.2       0 UNK        -0.5359 
      4 N          26.2145   25.3826    2.9131 N.am      1 UNK        -0.4318 
      5 CA         26.4556   24.0907    2.2663 C.3       1 UNK         0.0824 
      6 C6         27.9638   23.8380    2.0236 C.3       12 UNK        -0.0944 
      7 S7         28.8609   23.4994    3.5750 S.3       12 UNK        -0.2672 
      8 C8         30.3610   22.6606    2.9686 C.3       12 UNK         0.0333 
      9 C9         31.3292   23.6422    2.3249 C.ar      12 UNK        -0.0807 
     10 C10        32.3328   24.2488    3.0867 C.ar      12 UNK        -0.0894 
     11 C11        33.2039   25.1733    2.5020 C.ar      12 UNK        -0.0804 
     12 C12        33.0631   25.4962    1.1491 C.ar      12 UNK        -0.0824 
     13 C13        32.0546   24.9058    0.3825 C.ar      12 UNK        -0.0762 
     14 C14        31.2093   23.9595    0.9695 C.ar      12 UNK        -0.0782 
     15 C15        31.8284   25.3377   -1.0614 C.3       12 UNK         0.0230 
     16 S16        31.2566   27.0692   -1.2045 S.3       12 UNK        -0.2608 
     17 C17        30.1628   27.2787    0.2433 C.3       12 UNK        -0.0989 
     18 CA         28.9171   28.1428   -0.0513 C.3       5 UNK         0.0716 
     19 N          27.9441   27.4428   -0.8866 N.am      5 UNK        -0.4135 
     20 C          27.5326   27.8305   -2.0974 C.2       4 UNK         0.5031 
     21 O          28.0232   28.7672   -2.7313 O.2       4 UNK        -0.5229 
     22 CA         26.3435   27.0407   -2.6693 C.3       4 UNK         0.0329 
     23 CB         25.9328   27.4755   -4.0936 C.3       4 UNK        -0.2001 
     24 N          26.5506   25.5919   -2.5723 N.am      4 UNK        -0.4303 
     25 C          27.4030   24.8268   -3.2736 C.2       3 UNK         0.5044 
     26 O          28.1535   25.2620   -4.1474 O.2       3 UNK        -0.5152 
     27 CA         27.4397   23.3129   -2.9568 C.3       3 UNK         0.0319 
     28 CB         28.8615   22.8634   -2.5802 C.3       3 UNK        -0.2001 
     29 N          26.5303   22.8986   -1.8848 N.am      3 UNK        -0.4354 
     30 C          25.1946   22.8260   -1.9650 C.2       2 UNK         0.4964 
     31 O          24.5634   22.9916   -3.0086 O.2       2 UNK        -0.5047 
     32 CA         24.4284   22.5702   -0.6515 C.3       2 UNK         0.0288 
     33 CB         23.9231   21.1188   -0.6004 C.3       2 UNK        -0.2113 
     34 N          25.1883   22.8559    0.5756 N.am      2 UNK        -0.4145 
     35 C          25.6866   24.0498    0.9343 C.2       1 UNK         0.5006 
     36 O          25.6140   25.0631    0.2315 O.2       1 UNK        -0.5103 
     37 C          28.2043   28.4836    1.2654 C.2       5 UNK         0.5055 
     38 O          27.3642   27.7028    1.7203 O.2       5 UNK        -0.5220 
     39 N          28.5757   29.6194    1.8707 N.am      6 UNK        -0.4450 
     40 CA         27.9809   30.1411    3.1072 C.3       6 UNK         0.0367 
     41 CB         28.4353   31.5970    3.3084 C.3       6 UNK        -0.1929 
     42 C          28.2849   29.3143    4.3711 C.2       6 UNK         0.5070 
     43 O          27.5701   29.4703    5.3607 O.2       6 UNK        -0.5237 
     44 N          29.3347   28.4771    4.3246 N.am      7 UNK        -0.4739 
     45 CA         29.8341   27.6241    5.4156 C.3       7 UNK         0.0276 
     46 CB         28.7901   26.5496    5.7867 C.3       7 UNK        -0.1927 
     47 C          30.3113   28.4377    6.6381 C.2       7 UNK         0.5013 
     48 O          30.1181   28.0161    7.7804 O.2       7 UNK        -0.5193 
     49 N          30.9104   29.6023    6.3667 N.am      8 UNK        -0.4253 
     50 CA         31.3794   30.5757    7.3481 C.3       8 UNK         0.0242 
     51 CB         30.2213   31.5189    7.7425 C.3       8 UNK        -0.2000 
     52 C          32.6136   31.2803    6.7674 C.2       8 UNK         0.4948 
     53 O          33.5311   30.5927    6.3186 O.2       8 UNK        -0.5275 
     54 N          32.6178   32.6222    6.7448 N.am      9 UNK        -0.4246 
     55 CA         33.7161   33.4738    6.2617 C.3       9 UNK         0.0261 
     56 CB         33.3186   34.9508    6.4145 C.3       9 UNK        -0.1959 
     57 C          34.1753   33.1889    4.8183 C.2       9 UNK         0.5033 
     58 O          35.3524   33.3851    4.5121 O.2       9 UNK        -0.5390 
     59 N          33.2615   32.6814    3.9775 N.am      10 UNK        -0.4215 
     60 CA         33.5265   32.1931    2.6195 C.3       10 UNK         0.0240 
     61 CB         32.2014   31.7489    1.9764 C.3       10 UNK        -0.1982 
     62 C          34.5578   31.0484    2.5490 C.2       10 UNK         0.4970 
     63 O          35.2132   30.9024    1.5167 O.2       10 UNK        -0.4916 
     64 N          34.6918   30.2733    3.6335 N.am      11 UNK        -0.4279 
     65 CA         35.6973   29.2126    3.7869 C.3       11 UNK         0.1003 
     66 C          37.1006   29.7358    4.2143 C.2       11 UNK         0.5709 
     67 N          37.2908   31.0231    4.4859 N.am      11 UNK        -0.7358 
     68 O          38.0474   28.9559    4.2861 O.2       11 UNK        -0.4999 
     69 C69        35.1981   28.0860    4.7309 C.3       12 UNK        -0.0954 
     70 S70        33.6410   27.3349    4.1491 S.3       12 UNK        -0.2268 
     71 C71        34.2834   25.8436    3.3339 C.3       12 UNK         0.0203 
     72 H72        25.4940   27.1189    5.3703 H         1 UNK         0.0888 
     73 H73        25.6690   27.7445    3.7308 H         1 UNK         0.0888 
     74 H74        24.0725   27.3190    4.3405 H         1 UNK         0.0888 
     75 H75        26.7097   26.1765    2.5092 H         1 UNK         0.3017 
     76 H76        26.0744   23.2861    2.8993 H         1 UNK         0.0873 
     77 H77        28.4221   24.6943    1.5278 H         1 UNK         0.0745 
     78 H78        28.1090   22.9802    1.3640 H         1 UNK         0.0745 
     79 H79        30.0895   21.8718    2.2653 H         1 UNK         0.0705 
     80 H80        30.8452   22.1616    3.8093 H         1 UNK         0.0705 
     81 H81        32.4269   24.0136    4.1382 H         1 UNK         0.1334 
     82 H82        33.7135   26.2346    0.7000 H         1 UNK         0.1417 
     83 H83        30.4276   23.4988    0.3833 H         1 UNK         0.1562 
     84 H84        31.0983   24.6922   -1.5490 H         1 UNK         0.0748 
     85 H85        32.7563   25.2232   -1.6233 H         1 UNK         0.0748 
     86 H86        30.7725   27.7209    1.0342 H         1 UNK         0.0940 
     87 H87        29.8427   26.3073    0.6172 H         1 UNK         0.0940 
     88 H88        29.2283   29.0771   -0.5238 H         1 UNK         0.0703 
     89 H89        27.4154   26.7251   -0.4070 H         1 UNK         0.3081 
     90 H90        25.4984   27.2605   -2.0148 H         1 UNK         0.0719 
     91 H91        25.6344   28.5244   -4.1065 H         1 UNK         0.0809 
     92 H92        26.7492   27.3664   -4.8079 H         1 UNK         0.0809 
     93 H93        25.0864   26.8934   -4.4579 H         1 UNK         0.0809 
     94 H94        26.0236   25.1408   -1.8329 H         1 UNK         0.2990 
     95 H95        27.1483   22.7920   -3.8712 H         1 UNK         0.0690 
     96 H96        28.9158   21.7817   -2.4558 H         1 UNK         0.0788 
     97 H97        29.1891   23.3253   -1.6499 H         1 UNK         0.0788 
     98 H98        29.5822   23.1333   -3.3535 H         1 UNK         0.0788 
     99 H99        26.9520   22.7244   -0.9855 H         1 UNK         0.2993 
    100 H100       23.5618   23.2349   -0.6588 H         1 UNK         0.0949 
    101 H101       24.7475   20.4054   -0.5630 H         1 UNK         0.0767 
    102 H102       23.2897   20.9485    0.2705 H         1 UNK         0.0767 
    103 H103       23.3261   20.8807   -1.4822 H         1 UNK         0.0767 
    104 H104       25.3109   22.0766    1.2069 H         1 UNK         0.3013 
    105 H105       29.2738   30.1999    1.4282 H         1 UNK         0.3121 
    106 H106       26.8961   30.1387    2.9790 H         1 UNK         0.0774 
    107 H107       27.9597   32.0350    4.1873 H         1 UNK         0.0815 
    108 H108       29.5127   31.6693    3.4556 H         1 UNK         0.0815 
    109 H109       28.1671   32.2208    2.4556 H         1 UNK         0.0815 
    110 H110       29.8515   28.4269    3.4591 H         1 UNK         0.2987 
    111 H111       30.7124   27.1065    5.0269 H         1 UNK         0.0949 
    112 H112       28.4047   26.0508    4.8990 H         1 UNK         0.0806 
    113 H113       29.2285   25.7841    6.4277 H         1 UNK         0.0806 
    114 H114       27.9413   26.9758    6.3221 H         1 UNK         0.0806 
    115 H115       31.0872   29.8312    5.3997 H         1 UNK         0.3010 
    116 H116       31.7202   30.0493    8.2422 H         1 UNK         0.0829 
    117 H117       29.3867   30.9549    8.1600 H         1 UNK         0.0813 
    118 H118       30.5290   32.2337    8.5069 H         1 UNK         0.0813 
    119 H119       29.8384   32.0769    6.8869 H         1 UNK         0.0813 
    120 H120       31.8163   33.1023    7.1287 H         1 UNK         0.3038 
    121 H121       34.5745   33.2838    6.9094 H         1 UNK         0.0769 
    122 H122       34.1250   35.6083    6.0859 H         1 UNK         0.0811 
    123 H123       33.1055   35.2004    7.4541 H         1 UNK         0.0811 
    124 H124       32.4367   35.1958    5.8212 H         1 UNK         0.0811 
    125 H125       32.3196   32.5756    4.3223 H         1 UNK         0.3204 
    126 H126       33.9282   33.0293    2.0436 H         1 UNK         0.0748 
    127 H127       32.3591   31.4205    0.9479 H         1 UNK         0.0771 
    128 H128       31.7513   30.9156    2.5173 H         1 UNK         0.0771 
    129 H129       31.4797   32.5655    1.9453 H         1 UNK         0.0771 
    130 H130       34.1461   30.4692    4.4671 H         1 UNK         0.2980 
    131 H131       35.8503   28.7562    2.8072 H         1 UNK         0.0545 
    132 H132       38.2107   31.3348    4.7533 H         1 UNK         0.3459 
    133 H133       36.5331   31.6930    4.4238 H         1 UNK         0.3459 
    134 H134       35.9505   27.3019    4.8335 H         1 UNK         0.0616 
    135 H135       35.0339   28.4757    5.7365 H         1 UNK         0.0616 
    136 H136       34.6646   25.1532    4.0878 H         1 UNK         0.0634 
    137 H137       35.1300   26.1114    2.6996 H         1 UNK         0.0634 
@<TRIPOS>BOND
     1    1    2 1    
     2    1   72 1    
     3    1   73 1    
     4    1   74 1    
     5    2    3 2    
     6    2    4 am   BACKBONE|DICT|INTERRES
     7    4    5 1    
     8    4   75 1    
     9    5    6 1    
    10    5   35 1    
    11    5   76 1    
    12    6    7 1    
    13    6   77 1    
    14    6   78 1    
    15    7    8 1    
    16    8    9 1    
    17    8   79 1    
    18    8   80 1    
    19    9   10 ar   
    20    9   14 ar   
    21   10   11 ar   
    22   10   81 1    
    23   11   12 ar   
    24   11   71 1    
    25   12   13 ar   
    26   12   82 1    
    27   13   14 ar   
    28   13   15 1    
    29   14   83 1    
    30   15   16 1    
    31   15   84 1    
    32   15   85 1    
    33   16   17 1    
    34   17   18 1    
    35   17   86 1    
    36   17   87 1    
    37   18   19 1    
    38   18   37 1    
    39   18   88 1    
    40   19   20 am   BACKBONE|DICT|INTERRES
    41   19   89 1    
    42   20   21 2    
    43   20   22 1    
    44   22   23 1    
    45   22   24 1    
    46   22   90 1    
    47   23   91 1    
    48   23   92 1    
    49   23   93 1    
    50   24   25 am   BACKBONE|DICT|INTERRES
    51   24   94 1    
    52   25   26 2    
    53   25   27 1    
    54   27   28 1    
    55   27   29 1    
    56   27   95 1    
    57   28   96 1    
    58   28   97 1    
    59   28   98 1    
    60   29   30 am   BACKBONE|DICT|INTERRES
    61   29   99 1    
    62   30   31 2    
    63   30   32 1    
    64   32   33 1    
    65   32   34 1    
    66   32  100 1    
    67   33  101 1    
    68   33  102 1    
    69   33  103 1    
    70   34   35 am   BACKBONE|DICT|INTERRES
    71   34  104 1    
    72   35   36 2    
    73   37   38 2    
    74   37   39 am   BACKBONE|DICT|INTERRES
    75   39   40 1    
    76   39  105 1    
    77   40   41 1    
    78   40   42 1    
    79   40  106 1    
    80   41  107 1    
    81   41  108 1    
    82   41  109 1    
    83   42   43 2    
    84   42   44 am   BACKBONE|DICT|INTERRES
    85   44   45 1    
    86   44  110 1    
    87   45   46 1    
    88   45   47 1    
    89   45  111 1    
    90   46  112 1    
    91   46  113 1    
    92   46  114 1    
    93   47   48 2    
    94   47   49 am   BACKBONE|DICT|INTERRES
    95   49   50 1    
    96   49  115 1    
    97   50   51 1    
    98   50   52 1    
    99   50  116 1    
   100   51  117 1    
   101   51  118 1    
   102   51  119 1    
   103   52   53 2    
   104   52   54 am   BACKBONE|DICT|INTERRES
   105   54   55 1    
   106   54  120 1    
   107   55   56 1    
   108   55   57 1    
   109   55  121 1    
   110   56  122 1    
   111   56  123 1    
   112   56  124 1    
   113   57   58 2    
   114   57   59 am   BACKBONE|DICT|INTERRES
   115   59   60 1    
   116   59  125 1    
   117   60   61 1    
   118   60   62 1    
   119   60  126 1    
   120   61  127 1    
   121   61  128 1    
   122   61  129 1    
   123   62   63 2    
   124   62   64 am   BACKBONE|DICT|INTERRES
   125   64   65 1    
   126   64  130 1    
   127   65   66 1    
   128   65   69 1    
   129   65  131 1    
   130   66   67 am   BACKBONE|DICT|INTERRES
   131   66   68 2    
   132   67  132 1    
   133   67  133 1    
   134   69   70 1    
   135   69  134 1    
   136   69  135 1    
   137   70   71 1    
   138   71  136 1    
   139   71  137 1    
@<TRIPOS>SUBSTRUCTURE
     1 UNK         1 GROUP             0       ****    0 ROOT    
