@<TRIPOS>MOLECULE
3R136
137   139    1
SMALL
USER_CHARGES


@<TRIPOS>ATOM
      1 CA         30.0509   28.1325   -3.2280 C.3       0 UNK        -0.1979 
      2 C          29.5654   26.7692   -2.7569 C.2       0 UNK         0.4864 
      3 O          28.9253   26.0541   -3.5294 O.2       0 UNK        -0.5359 
      4 N          29.8705   26.4130   -1.5014 N.am      1 UNK        -0.4318 
      5 CA         29.5008   25.1662   -0.8197 C.3       1 UNK         0.0824 
      6 C6         30.1736   23.9018   -1.4222 C.3       12 UNK        -0.0944 
      7 S7         31.9913   23.9838   -1.3362 S.3       12 UNK        -0.2672 
      8 C8         32.3554   22.7201   -0.0785 C.3       12 UNK         0.0333 
      9 C9         32.1200   23.2200    1.3409 C.ar      12 UNK        -0.0807 
     10 C10        33.0169   24.1302    1.9080 C.ar      12 UNK        -0.0894 
     11 C11        32.8917   24.5165    3.2450 C.ar      12 UNK        -0.0804 
     12 C12        31.8521   23.9858    4.0138 C.ar      12 UNK        -0.0824 
     13 C13        30.9236   23.1031    3.4521 C.ar      12 UNK        -0.0762 
     14 C14        31.0607   22.7250    2.1114 C.ar      12 UNK        -0.0782 
     15 C15        29.8148   22.5125    4.3180 C.3       12 UNK         0.0230 
     16 S16        28.2003   23.3279    4.0804 S.3       12 UNK        -0.2608 
     17 C17        28.5540   25.0499    4.5700 C.3       12 UNK        -0.0989 
     18 CA         28.5356   25.9712    3.3227 C.3       5 UNK         0.0716 
     19 N          27.1869   26.2555    2.8205 N.am      5 UNK        -0.4135 
     20 C          26.2344   26.9771    3.4312 C.2       4 UNK         0.5031 
     21 O          26.3344   27.4564    4.5610 O.2       4 UNK        -0.5229 
     22 CA         24.9405   27.2139    2.6375 C.3       4 UNK         0.0329 
     23 CB         25.1293   28.3553    1.6239 C.3       4 UNK        -0.2001 
     24 N          24.4735   26.0145    1.9421 N.am      4 UNK        -0.4303 
     25 C          23.9465   24.9355    2.5415 C.2       3 UNK         0.5044 
     26 O          23.7802   24.8413    3.7580 O.2       3 UNK        -0.5152 
     27 CA         23.5013   23.7718    1.6341 C.3       3 UNK         0.0319 
     28 CB         21.9721   23.7708    1.4723 C.3       3 UNK        -0.2001 
     29 N          24.1212   23.8180    0.3071 N.am      3 UNK        -0.4354 
     30 C          25.3858   23.4582    0.0532 C.2       2 UNK         0.4964 
     31 O          26.1207   22.9252    0.8867 O.2       2 UNK        -0.5047 
     32 CA         25.9244   23.7441   -1.3638 C.3       2 UNK         0.0288 
     33 CB         25.1410   24.8411   -2.1231 C.3       2 UNK        -0.2113 
     34 N          27.3570   24.0624   -1.3549 N.am      2 UNK        -0.4145 
     35 C          27.9659   25.0593   -0.6913 C.2       1 UNK         0.5006 
     36 O          27.3746   25.8811    0.0151 O.2       1 UNK        -0.5103 
     37 C          29.3252   27.2807    3.5004 C.2       5 UNK         0.5055 
     38 O          29.6244   27.6970    4.6220 O.2       5 UNK        -0.5220 
     39 N          29.6223   27.9157    2.3634 N.am      6 UNK        -0.4450 
     40 CA         30.4774   29.0879    2.2581 C.3       6 UNK         0.0367 
     41 CB         29.6183   30.3121    1.8977 C.3       6 UNK        -0.1929 
     42 C          31.5188   28.8213    1.1725 C.2       6 UNK         0.5070 
     43 O          31.1745   28.2547    0.1333 O.2       6 UNK        -0.5237 
     44 N          32.7557   29.2582    1.4202 N.am      7 UNK        -0.4739 
     45 CA         33.8422   29.2574    0.4367 C.3       7 UNK         0.0276 
     46 CB         35.1715   28.9778    1.1557 C.3       7 UNK        -0.1927 
     47 C          33.9004   30.6002   -0.3105 C.2       7 UNK         0.5013 
     48 O          34.2666   30.6335   -1.4852 O.2       7 UNK        -0.5193 
     49 N          33.5140   31.6702    0.3915 N.am      8 UNK        -0.4253 
     50 CA         33.3727   33.0493   -0.0681 C.3       8 UNK         0.0242 
     51 CB         34.7331   33.6889   -0.4138 C.3       8 UNK        -0.2000 
     52 C          32.6545   33.7876    1.0629 C.2       8 UNK         0.4948 
     53 O          31.5315   34.2573    0.8793 O.2       8 UNK        -0.5275 
     54 N          33.2801   33.7556    2.2468 N.am      9 UNK        -0.4246 
     55 CA         32.6082   33.8764    3.5385 C.3       9 UNK         0.0261 
     56 CB         33.6148   34.4075    4.5729 C.3       9 UNK        -0.1959 
     57 C          32.0786   32.4922    3.9576 C.2       9 UNK         0.5033 
     58 O          32.5089   31.4765    3.3956 O.2       9 UNK        -0.5390 
     59 N          31.1653   32.4793    4.9371 N.am      10 UNK        -0.4215 
     60 CA         30.5942   31.2701    5.5366 C.3       10 UNK         0.0240 
     61 CB         29.4613   31.6656    6.4973 C.3       10 UNK        -0.1982 
     62 C          31.6576   30.4361    6.2710 C.2       10 UNK         0.4970 
     63 O          32.5008   31.0073    6.9669 O.2       10 UNK        -0.4916 
     64 N          31.5800   29.1098    6.1236 N.am      11 UNK        -0.4279 
     65 CA         32.4941   28.1478    6.7582 C.3       11 UNK         0.1003 
     66 C          32.1807   27.8640    8.2563 C.2       11 UNK         0.5709 
     67 N          31.0503   28.3025    8.7986 N.am      11 UNK        -0.7358 
     68 O          32.9869   27.2420    8.9440 O.2       11 UNK        -0.4999 
     69 C69        32.5741   26.8300    5.9460 C.3       12 UNK        -0.0954 
     70 S70        33.2088   27.0922    4.2540 S.3       12 UNK        -0.2268 
     71 C71        33.9149   25.4601    3.8652 C.3       12 UNK         0.0203 
     72 H72        30.6570   28.6339   -2.4737 H         1 UNK         0.0888 
     73 H73        30.6554   28.0247   -4.1281 H         1 UNK         0.0888 
     74 H74        29.2010   28.7730   -3.4613 H         1 UNK         0.0888 
     75 H75        30.3961   27.0737   -0.9277 H         1 UNK         0.3017 
     76 H76        29.8711   25.2670    0.2015 H         1 UNK         0.0873 
     77 H77        29.8976   23.7687   -2.4695 H         1 UNK         0.0745 
     78 H78        29.8391   23.0040   -0.8993 H         1 UNK         0.0745 
     79 H79        33.4025   22.4302   -0.1778 H         1 UNK         0.0705 
     80 H80        31.7779   21.8165   -0.2796 H         1 UNK         0.0705 
     81 H81        33.8338   24.5127    1.3109 H         1 UNK         0.1334 
     82 H82        31.7734   24.2504    5.0579 H         1 UNK         0.1417 
     83 H83        30.3631   22.0184    1.6822 H         1 UNK         0.1562 
     84 H84        30.0857   22.5633    5.3738 H         1 UNK         0.0748 
     85 H85        29.7051   21.4514    4.0892 H         1 UNK         0.0748 
     86 H86        29.5174   25.0856    5.0784 H         1 UNK         0.0940 
     87 H87        27.8226   25.3715    5.3125 H         1 UNK         0.0940 
     88 H88        29.0501   25.4383    2.5214 H         1 UNK         0.0703 
     89 H89        27.0170   25.9636    1.8613 H         1 UNK         0.3081 
     90 H90        24.1663   27.5159    3.3464 H         1 UNK         0.0719 
     91 H91        24.1940   28.5951    1.1179 H         1 UNK         0.0809 
     92 H92        25.4698   29.2649    2.1209 H         1 UNK         0.0809 
     93 H93        25.8687   28.1053    0.8618 H         1 UNK         0.0809 
     94 H94        24.5879   25.9965    0.9398 H         1 UNK         0.2990 
     95 H95        23.7923   22.8413    2.1266 H         1 UNK         0.0690 
     96 H96        21.4775   23.7050    2.4425 H         1 UNK         0.0788 
     97 H97        21.6359   22.9185    0.8814 H         1 UNK         0.0788 
     98 H98        21.6154   24.6798    0.9862 H         1 UNK         0.0788 
     99 H99        23.5745   24.2246   -0.4387 H         1 UNK         0.2993 
    100 H100       25.8201   22.8115   -1.9204 H         1 UNK         0.0949 
    101 H101       25.1190   25.7833   -1.5738 H         1 UNK         0.0767 
    102 H102       25.5952   25.0415   -3.0939 H         1 UNK         0.0767 
    103 H103       24.1108   24.5401   -2.3164 H         1 UNK         0.0767 
    104 H104       27.9378   23.4417   -1.8997 H         1 UNK         0.3013 
    105 H105       29.3543   27.5066    1.4787 H         1 UNK         0.3121 
    106 H106       31.0033   29.2624    3.1971 H         1 UNK         0.0774 
    107 H107       29.0984   30.1738    0.9488 H         1 UNK         0.0815 
    108 H108       30.2321   31.2087    1.8038 H         1 UNK         0.0815 
    109 H109       28.8672   30.5091    2.6624 H         1 UNK         0.0815 
    110 H110       32.9268   29.7344    2.3005 H         1 UNK         0.2987 
    111 H111       33.6789   28.4682   -0.3010 H         1 UNK         0.0949 
    112 H112       35.3939   29.7357    1.9080 H         1 UNK         0.0806 
    113 H113       35.1527   28.0082    1.6541 H         1 UNK         0.0806 
    114 H114       36.0020   28.9635    0.4486 H         1 UNK         0.0806 
    115 H115       33.1890   31.5101    1.3397 H         1 UNK         0.3010 
    116 H116       32.7324   33.0618   -0.9525 H         1 UNK         0.0829 
    117 H117       35.1848   33.2137   -1.2846 H         1 UNK         0.0813 
    118 H118       34.6155   34.7468   -0.6524 H         1 UNK         0.0813 
    119 H119       35.4448   33.6148    0.4087 H         1 UNK         0.0813 
    120 H120       34.1950   33.3292    2.2780 H         1 UNK         0.3038 
    121 H121       31.7700   34.5722    3.4596 H         1 UNK         0.0769 
    122 H122       34.4502   33.7203    4.7146 H         1 UNK         0.0811 
    123 H123       33.1431   34.5494    5.5460 H         1 UNK         0.0811 
    124 H124       34.0225   35.3720    4.2692 H         1 UNK         0.0811 
    125 H125       30.8978   33.3567    5.3590 H         1 UNK         0.3204 
    126 H126       30.1600   30.6696    4.7383 H         1 UNK         0.0748 
    127 H127       28.6815   32.2271    5.9824 H         1 UNK         0.0771 
    128 H128       28.9890   30.7814    6.9276 H         1 UNK         0.0771 
    129 H129       29.8266   32.2762    7.3243 H         1 UNK         0.0771 
    130 H130       30.8406   28.6965    5.5574 H         1 UNK         0.2980 
    131 H131       33.4931   28.5883    6.7507 H         1 UNK         0.0545 
    132 H132       30.3805   28.8074    8.2419 H         1 UNK         0.3459 
    133 H133       30.8639   28.1158    9.7712 H         1 UNK         0.3459 
    134 H134       33.2253   26.1145    6.4510 H         1 UNK         0.0616 
    135 H135       31.5897   26.3654    5.8869 H         1 UNK         0.0616 
    136 H136       34.3440   25.0064    4.7593 H         1 UNK         0.0634 
    137 H137       34.7494   25.6131    3.1792 H         1 UNK         0.0634 
@<TRIPOS>BOND
     1    1    2 1    
     2    1   72 1    
     3    1   73 1    
     4    1   74 1    
     5    2    3 2    
     6    2    4 am   BACKBONE|DICT|INTERRES
     7    4    5 1    
     8    4   75 1    
     9    5    6 1    
    10    5   35 1    
    11    5   76 1    
    12    6    7 1    
    13    6   77 1    
    14    6   78 1    
    15    7    8 1    
    16    8    9 1    
    17    8   79 1    
    18    8   80 1    
    19    9   10 ar   
    20    9   14 ar   
    21   10   11 ar   
    22   10   81 1    
    23   11   12 ar   
    24   11   71 1    
    25   12   13 ar   
    26   12   82 1    
    27   13   14 ar   
    28   13   15 1    
    29   14   83 1    
    30   15   16 1    
    31   15   84 1    
    32   15   85 1    
    33   16   17 1    
    34   17   18 1    
    35   17   86 1    
    36   17   87 1    
    37   18   19 1    
    38   18   37 1    
    39   18   88 1    
    40   19   20 am   BACKBONE|DICT|INTERRES
    41   19   89 1    
    42   20   21 2    
    43   20   22 1    
    44   22   23 1    
    45   22   24 1    
    46   22   90 1    
    47   23   91 1    
    48   23   92 1    
    49   23   93 1    
    50   24   25 am   BACKBONE|DICT|INTERRES
    51   24   94 1    
    52   25   26 2    
    53   25   27 1    
    54   27   28 1    
    55   27   29 1    
    56   27   95 1    
    57   28   96 1    
    58   28   97 1    
    59   28   98 1    
    60   29   30 am   BACKBONE|DICT|INTERRES
    61   29   99 1    
    62   30   31 2    
    63   30   32 1    
    64   32   33 1    
    65   32   34 1    
    66   32  100 1    
    67   33  101 1    
    68   33  102 1    
    69   33  103 1    
    70   34   35 am   BACKBONE|DICT|INTERRES
    71   34  104 1    
    72   35   36 2    
    73   37   38 2    
    74   37   39 am   BACKBONE|DICT|INTERRES
    75   39   40 1    
    76   39  105 1    
    77   40   41 1    
    78   40   42 1    
    79   40  106 1    
    80   41  107 1    
    81   41  108 1    
    82   41  109 1    
    83   42   43 2    
    84   42   44 am   BACKBONE|DICT|INTERRES
    85   44   45 1    
    86   44  110 1    
    87   45   46 1    
    88   45   47 1    
    89   45  111 1    
    90   46  112 1    
    91   46  113 1    
    92   46  114 1    
    93   47   48 2    
    94   47   49 am   BACKBONE|DICT|INTERRES
    95   49   50 1    
    96   49  115 1    
    97   50   51 1    
    98   50   52 1    
    99   50  116 1    
   100   51  117 1    
   101   51  118 1    
   102   51  119 1    
   103   52   53 2    
   104   52   54 am   BACKBONE|DICT|INTERRES
   105   54   55 1    
   106   54  120 1    
   107   55   56 1    
   108   55   57 1    
   109   55  121 1    
   110   56  122 1    
   111   56  123 1    
   112   56  124 1    
   113   57   58 2    
   114   57   59 am   BACKBONE|DICT|INTERRES
   115   59   60 1    
   116   59  125 1    
   117   60   61 1    
   118   60   62 1    
   119   60  126 1    
   120   61  127 1    
   121   61  128 1    
   122   61  129 1    
   123   62   63 2    
   124   62   64 am   BACKBONE|DICT|INTERRES
   125   64   65 1    
   126   64  130 1    
   127   65   66 1    
   128   65   69 1    
   129   65  131 1    
   130   66   67 am   BACKBONE|DICT|INTERRES
   131   66   68 2    
   132   67  132 1    
   133   67  133 1    
   134   69   70 1    
   135   69  134 1    
   136   69  135 1    
   137   70   71 1    
   138   71  136 1    
   139   71  137 1    
@<TRIPOS>SUBSTRUCTURE
     1 UNK         1 GROUP             0       ****    0 ROOT    
