@<TRIPOS>MOLECULE
3R136
137   139    1
SMALL
USER_CHARGES


@<TRIPOS>ATOM
      1 CA         34.3861   23.2731    1.0304 C.3       0 UNK        -0.1979 
      2 C          33.0755   24.0452    1.0438 C.2       0 UNK         0.4864 
      3 O          33.0791   25.2412    1.3307 O.2       0 UNK        -0.5359 
      4 N          31.9604   23.3679    0.7354 N.am      1 UNK        -0.4318 
      5 CA         30.6005   23.9254    0.7443 C.3       1 UNK         0.0824 
      6 C6         29.5134   22.8292    0.5950 C.3       12 UNK        -0.0944 
      7 S7         29.6991   21.4498    1.7741 S.3       12 UNK        -0.2672 
      8 C8         28.2195   21.6477    2.8255 C.3       12 UNK         0.0333 
      9 C9         28.2567   22.8435    3.7768 C.ar      12 UNK        -0.0807 
     10 C10        29.4548   23.3193    4.3225 C.ar      12 UNK        -0.0894 
     11 C11        29.4557   24.3811    5.2307 C.ar      12 UNK        -0.0804 
     12 C12        28.2423   24.9607    5.6159 C.ar      12 UNK        -0.0824 
     13 C13        27.0361   24.4979    5.0783 C.ar      12 UNK        -0.0762 
     14 C14        27.0530   23.4436    4.1597 C.ar      12 UNK        -0.0782 
     15 C15        25.7068   25.1105    5.5019 C.3       12 UNK         0.0230 
     16 S16        24.9987   26.1812    4.2069 S.3       12 UNK        -0.2608 
     17 C17        26.0843   27.6411    4.3017 C.3       12 UNK        -0.0989 
     18 CA         27.2674   27.5827    3.2976 C.3       5 UNK         0.0716 
     19 N          26.8492   27.8035    1.9152 N.am      5 UNK        -0.4135 
     20 C          26.6398   26.8664    0.9856 C.2       4 UNK         0.5031 
     21 O          26.6489   25.6540    1.2114 O.2       4 UNK        -0.5229 
     22 CA         26.3721   27.3630   -0.4470 C.3       4 UNK         0.0329 
     23 CB         26.8873   28.7921   -0.7296 C.3       4 UNK        -0.2001 
     24 N          26.9885   26.4310   -1.3867 N.am      4 UNK        -0.4303 
     25 C          26.4964   26.0757   -2.5798 C.2       3 UNK         0.5044 
     26 O          25.4430   26.5231   -3.0380 O.2       3 UNK        -0.5152 
     27 CA         27.2985   25.0333   -3.3939 C.3       3 UNK         0.0319 
     28 CB         27.0669   25.1559   -4.9157 C.3       3 UNK        -0.2001 
     29 N          28.7346   25.0072   -3.0808 N.am      3 UNK        -0.4354 
     30 C          29.6209   26.0054   -3.2316 C.2       2 UNK         0.4964 
     31 O          29.3567   27.0808   -3.7718 O.2       2 UNK        -0.5047 
     32 CA         31.0363   25.7644   -2.6568 C.3       2 UNK         0.0288 
     33 CB         31.7647   27.0864   -2.3343 C.3       2 UNK        -0.2113 
     34 N          31.0727   24.8707   -1.4855 N.am      2 UNK        -0.4145 
     35 C          30.3835   25.0025   -0.3381 C.2       1 UNK         0.5006 
     36 O          29.5662   25.8975   -0.1343 O.2       1 UNK        -0.5103 
     37 C          28.3257   28.6481    3.6312 C.2       5 UNK         0.5055 
     38 O          28.5254   29.5848    2.8488 O.2       5 UNK        -0.5220 
     39 N          28.9681   28.4988    4.7999 N.am      6 UNK        -0.4450 
     40 CA         30.0879   29.3004    5.3144 C.3       6 UNK         0.0367 
     41 CB         30.3999   28.8730    6.7576 C.3       6 UNK        -0.1929 
     42 C          29.9135   30.8278    5.2584 C.2       6 UNK         0.5070 
     43 O          30.9097   31.5309    5.1016 O.2       6 UNK        -0.5237 
     44 N          28.6671   31.3149    5.3344 N.am      7 UNK        -0.4739 
     45 CA         28.3039   32.7276    5.1707 C.3       7 UNK         0.0276 
     46 CB         26.7912   32.8865    5.3929 C.3       7 UNK        -0.1927 
     47 C          28.7142   33.3327    3.8119 C.2       7 UNK         0.5013 
     48 O          28.9464   34.5405    3.7439 O.2       7 UNK        -0.5193 
     49 N          28.8102   32.4903    2.7742 N.am      8 UNK        -0.4253 
     50 CA         29.3204   32.8445    1.4491 C.3       8 UNK         0.0242 
     51 CB         28.2320   32.5683    0.3982 C.3       8 UNK        -0.2000 
     52 C          30.5986   32.0611    1.1100 C.2       8 UNK         0.4948 
     53 O          31.5069   32.6270    0.5012 O.2       8 UNK        -0.5275 
     54 N          30.6448   30.7754    1.4845 N.am      9 UNK        -0.4246 
     55 CA         31.6942   29.8312    1.0969 C.3       9 UNK         0.0261 
     56 CB         31.1115   28.4117    1.1600 C.3       9 UNK        -0.1959 
     57 C          32.9649   29.8912    1.9571 C.2       9 UNK         0.5033 
     58 O          33.9704   29.3040    1.5560 O.2       9 UNK        -0.5390 
     59 N          32.8964   30.5136    3.1435 N.am      10 UNK        -0.4215 
     60 CA         33.9004   30.5379    4.2206 C.3       10 UNK         0.0240 
     61 CB         35.2399   31.1421    3.7538 C.3       10 UNK        -0.1982 
     62 C          34.1109   29.1819    4.9259 C.2       10 UNK         0.4970 
     63 O          34.2527   29.1712    6.1493 O.2       10 UNK        -0.4916 
     64 N          34.1135   28.0802    4.1631 N.am      11 UNK        -0.4279 
     65 CA         34.3667   26.6977    4.6021 C.3       11 UNK         0.1003 
     66 C          35.8100   26.4924    5.1628 C.2       11 UNK         0.5709 
     67 N          36.0835   25.3867    5.8438 N.am      11 UNK        -0.7358 
     68 O          36.7127   27.2981    4.9394 O.2       11 UNK        -0.4999 
     69 C69        33.2386   26.1413    5.5247 C.3       12 UNK        -0.0954 
     70 S70        31.6341   25.9938    4.6701 S.3       12 UNK        -0.2268 
     71 C71        30.7736   24.8675    5.8121 C.3       12 UNK         0.0203 
     72 H72        34.8552   23.3167    2.0130 H         1 UNK         0.0888 
     73 H73        34.2402   22.2247    0.7704 H         1 UNK         0.0888 
     74 H74        35.0717   23.7111    0.3054 H         1 UNK         0.0888 
     75 H75        32.0192   22.3790    0.5367 H         1 UNK         0.3017 
     76 H76        30.4582   24.4158    1.7104 H         1 UNK         0.0873 
     77 H77        28.5203   23.2694    0.7120 H         1 UNK         0.0745 
     78 H78        29.5355   22.3994   -0.4084 H         1 UNK         0.0745 
     79 H79        28.1050   20.7437    3.4248 H         1 UNK         0.0705 
     80 H80        27.3402   21.7012    2.1813 H         1 UNK         0.0705 
     81 H81        30.3957   22.8619    4.0503 H         1 UNK         0.1334 
     82 H82        28.2360   25.7619    6.3414 H         1 UNK         0.1417 
     83 H83        26.1186   23.0839    3.7502 H         1 UNK         0.1562 
     84 H84        25.8118   25.6726    6.4311 H         1 UNK         0.0748 
     85 H85        24.9979   24.3092    5.7156 H         1 UNK         0.0748 
     86 H86        26.4293   27.7319    5.3329 H         1 UNK         0.0940 
     87 H87        25.4769   28.5296    4.1186 H         1 UNK         0.0940 
     88 H88        27.7697   26.6160    3.3646 H         1 UNK         0.0703 
     89 H89        26.9102   28.7700    1.6250 H         1 UNK         0.3081 
     90 H90        25.2885   27.3484   -0.5802 H         1 UNK         0.0719 
     91 H91        27.9552   28.8834   -0.5250 H         1 UNK         0.0809 
     92 H92        26.7303   29.0659   -1.7732 H         1 UNK         0.0809 
     93 H93        26.3614   29.5352   -0.1294 H         1 UNK         0.0809 
     94 H94        27.8565   26.0172   -1.0549 H         1 UNK         0.2990 
     95 H95        26.9105   24.0617   -3.0849 H         1 UNK         0.0690 
     96 H96        27.6321   24.4035   -5.4656 H         1 UNK         0.0788 
     97 H97        27.3579   26.1369   -5.2924 H         1 UNK         0.0788 
     98 H98        26.0146   25.0132   -5.1647 H         1 UNK         0.0788 
     99 H99        29.0627   24.1639   -2.6322 H         1 UNK         0.2993 
    100 H100       31.5984   25.2603   -3.4444 H         1 UNK         0.0949 
    101 H101       31.1865   27.7023   -1.6458 H         1 UNK         0.0767 
    102 H102       32.7417   26.9066   -1.8853 H         1 UNK         0.0767 
    103 H103       31.9260   27.6758   -3.2377 H         1 UNK         0.0767 
    104 H104       31.7048   24.0854   -1.5562 H         1 UNK         0.3013 
    105 H105       28.7300   27.6955    5.3605 H         1 UNK         0.3121 
    106 H106       30.9526   29.0545    4.6961 H         1 UNK         0.0774 
    107 H107       31.2625   29.4170    7.1463 H         1 UNK         0.0815 
    108 H108       29.5615   29.0687    7.4272 H         1 UNK         0.0815 
    109 H109       30.6409   27.8136    6.8227 H         1 UNK         0.0815 
    110 H110       27.9082   30.6617    5.4607 H         1 UNK         0.2987 
    111 H111       28.8280   33.2925    5.9448 H         1 UNK         0.0949 
    112 H112       26.4913   33.9316    5.3031 H         1 UNK         0.0806 
    113 H113       26.2141   32.3183    4.6621 H         1 UNK         0.0806 
    114 H114       26.4977   32.5526    6.3883 H         1 UNK         0.0806 
    115 H115       28.5983   31.5100    2.9349 H         1 UNK         0.3010 
    116 H116       29.5716   33.9066    1.4066 H         1 UNK         0.0829 
    117 H117       27.3412   33.1678    0.5862 H         1 UNK         0.0813 
    118 H118       28.5840   32.8158   -0.6042 H         1 UNK         0.0813 
    119 H119       27.9339   31.5195    0.3910 H         1 UNK         0.0813 
    120 H120       29.8454   30.3727    1.9698 H         1 UNK         0.3038 
    121 H121       31.9835   30.0354    0.0637 H         1 UNK         0.0769 
    122 H122       31.8137   27.6815    0.7553 H         1 UNK         0.0811 
    123 H123       30.1916   28.3348    0.5813 H         1 UNK         0.0811 
    124 H124       30.8907   28.1049    2.1826 H         1 UNK         0.0811 
    125 H125       32.0184   30.9546    3.3947 H         1 UNK         0.3204 
    126 H126       33.4979   31.2141    4.9758 H         1 UNK         0.0748 
    127 H127       35.9159   31.2790    4.5987 H         1 UNK         0.0771 
    128 H128       35.7526   30.5022    3.0353 H         1 UNK         0.0771 
    129 H129       35.0950   32.1187    3.2920 H         1 UNK         0.0771 
    130 H130       34.0508   28.2172    3.1591 H         1 UNK         0.2980 
    131 H131       34.3560   26.1092    3.6843 H         1 UNK         0.0545 
    132 H132       37.0209   25.2452    6.1862 H         1 UNK         0.3459 
    133 H133       35.3756   24.6924    6.0209 H         1 UNK         0.3459 
    134 H134       33.1136   26.7614    6.4132 H         1 UNK         0.0616 
    135 H135       33.4928   25.1442    5.8842 H         1 UNK         0.0616 
    136 H136       30.6114   25.3712    6.7659 H         1 UNK         0.0634 
    137 H137       31.4104   24.0072    6.0238 H         1 UNK         0.0634 
@<TRIPOS>BOND
     1    1    2 1    
     2    1   72 1    
     3    1   73 1    
     4    1   74 1    
     5    2    3 2    
     6    2    4 am   BACKBONE|DICT|INTERRES
     7    4    5 1    
     8    4   75 1    
     9    5    6 1    
    10    5   35 1    
    11    5   76 1    
    12    6    7 1    
    13    6   77 1    
    14    6   78 1    
    15    7    8 1    
    16    8    9 1    
    17    8   79 1    
    18    8   80 1    
    19    9   10 ar   
    20    9   14 ar   
    21   10   11 ar   
    22   10   81 1    
    23   11   12 ar   
    24   11   71 1    
    25   12   13 ar   
    26   12   82 1    
    27   13   14 ar   
    28   13   15 1    
    29   14   83 1    
    30   15   16 1    
    31   15   84 1    
    32   15   85 1    
    33   16   17 1    
    34   17   18 1    
    35   17   86 1    
    36   17   87 1    
    37   18   19 1    
    38   18   37 1    
    39   18   88 1    
    40   19   20 am   BACKBONE|DICT|INTERRES
    41   19   89 1    
    42   20   21 2    
    43   20   22 1    
    44   22   23 1    
    45   22   24 1    
    46   22   90 1    
    47   23   91 1    
    48   23   92 1    
    49   23   93 1    
    50   24   25 am   BACKBONE|DICT|INTERRES
    51   24   94 1    
    52   25   26 2    
    53   25   27 1    
    54   27   28 1    
    55   27   29 1    
    56   27   95 1    
    57   28   96 1    
    58   28   97 1    
    59   28   98 1    
    60   29   30 am   BACKBONE|DICT|INTERRES
    61   29   99 1    
    62   30   31 2    
    63   30   32 1    
    64   32   33 1    
    65   32   34 1    
    66   32  100 1    
    67   33  101 1    
    68   33  102 1    
    69   33  103 1    
    70   34   35 am   BACKBONE|DICT|INTERRES
    71   34  104 1    
    72   35   36 2    
    73   37   38 2    
    74   37   39 am   BACKBONE|DICT|INTERRES
    75   39   40 1    
    76   39  105 1    
    77   40   41 1    
    78   40   42 1    
    79   40  106 1    
    80   41  107 1    
    81   41  108 1    
    82   41  109 1    
    83   42   43 2    
    84   42   44 am   BACKBONE|DICT|INTERRES
    85   44   45 1    
    86   44  110 1    
    87   45   46 1    
    88   45   47 1    
    89   45  111 1    
    90   46  112 1    
    91   46  113 1    
    92   46  114 1    
    93   47   48 2    
    94   47   49 am   BACKBONE|DICT|INTERRES
    95   49   50 1    
    96   49  115 1    
    97   50   51 1    
    98   50   52 1    
    99   50  116 1    
   100   51  117 1    
   101   51  118 1    
   102   51  119 1    
   103   52   53 2    
   104   52   54 am   BACKBONE|DICT|INTERRES
   105   54   55 1    
   106   54  120 1    
   107   55   56 1    
   108   55   57 1    
   109   55  121 1    
   110   56  122 1    
   111   56  123 1    
   112   56  124 1    
   113   57   58 2    
   114   57   59 am   BACKBONE|DICT|INTERRES
   115   59   60 1    
   116   59  125 1    
   117   60   61 1    
   118   60   62 1    
   119   60  126 1    
   120   61  127 1    
   121   61  128 1    
   122   61  129 1    
   123   62   63 2    
   124   62   64 am   BACKBONE|DICT|INTERRES
   125   64   65 1    
   126   64  130 1    
   127   65   66 1    
   128   65   69 1    
   129   65  131 1    
   130   66   67 am   BACKBONE|DICT|INTERRES
   131   66   68 2    
   132   67  132 1    
   133   67  133 1    
   134   69   70 1    
   135   69  134 1    
   136   69  135 1    
   137   70   71 1    
   138   71  136 1    
   139   71  137 1    
@<TRIPOS>SUBSTRUCTURE
     1 UNK         1 GROUP             0       ****    0 ROOT    
