@<TRIPOS>MOLECULE
3R136
137   139    1
SMALL
USER_CHARGES


@<TRIPOS>ATOM
      1 CA         32.4597   26.6725    0.4117 C.3       0 UNK        -0.1979 
      2 C          31.1552   25.9977    0.8063 C.2       0 UNK         0.4864 
      3 O          30.1128   26.6509    0.7983 O.2       0 UNK        -0.5359 
      4 N          31.2145   24.7043    1.1524 N.am      1 UNK        -0.4318 
      5 CA         30.0716   23.8562    1.5044 C.3       1 UNK         0.0824 
      6 C6         30.5213   22.7198    2.4669 C.3       12 UNK        -0.0944 
      7 S7         29.1407   21.7956    3.2299 S.3       12 UNK        -0.2672 
      8 C8         29.0685   22.5105    4.9020 C.3       12 UNK         0.0333 
      9 C9         28.6042   23.9584    4.8750 C.ar      12 UNK        -0.0807 
     10 C10        29.4955   24.9922    5.1715 C.ar      12 UNK        -0.0894 
     11 C11        29.0790   26.3268    5.1338 C.ar      12 UNK        -0.0804 
     12 C12        27.7459   26.6188    4.8217 C.ar      12 UNK        -0.0824 
     13 C13        26.8399   25.5898    4.5394 C.ar      12 UNK        -0.0762 
     14 C14        27.2772   24.2630    4.5631 C.ar      12 UNK        -0.0782 
     15 C15        25.3806   25.8944    4.2330 C.3       12 UNK         0.0230 
     16 S16        25.0731   26.0107    2.4425 S.3       12 UNK        -0.2608 
     17 C17        25.6737   27.6958    2.0850 C.3       12 UNK        -0.0989 
     18 CA         27.0769   27.6954    1.4221 C.3       5 UNK         0.0716 
     19 N          27.1097   26.9874    0.1385 N.am      5 UNK        -0.4135 
     20 C          26.4853   27.3365   -0.9963 C.2       4 UNK         0.5031 
     21 O          25.8312   28.3688   -1.1488 O.2       4 UNK        -0.5229 
     22 CA         26.5725   26.3266   -2.1500 C.3       4 UNK         0.0329 
     23 CB         27.9227   26.4378   -2.8782 C.3       4 UNK        -0.2001 
     24 N          26.3753   24.9622   -1.6536 N.am      4 UNK        -0.4303 
     25 C          25.1765   24.4314   -1.3633 C.2       3 UNK         0.5044 
     26 O          24.1131   25.0018   -1.6128 O.2       3 UNK        -0.5152 
     27 CA         25.1306   23.0617   -0.6469 C.3       3 UNK         0.0319 
     28 CB         24.0520   22.1286   -1.2380 C.3       3 UNK        -0.2001 
     29 N          26.4256   22.3769   -0.5392 N.am      3 UNK        -0.4354 
     30 C          27.1881   21.8937   -1.5325 C.2       2 UNK         0.4964 
     31 O          26.8426   21.8729   -2.7148 O.2       2 UNK        -0.5047 
     32 CA         28.5928   21.3876   -1.1338 C.3       2 UNK         0.0288 
     33 CB         29.5877   21.4369   -2.3132 C.3       2 UNK        -0.2113 
     34 N          29.1749   22.0665    0.0373 N.am      2 UNK        -0.4145 
     35 C          29.3588   23.3858    0.2111 C.2       1 UNK         0.5006 
     36 O          28.9608   24.2252   -0.5981 O.2       1 UNK        -0.5103 
     37 C          27.6779   29.1100    1.3066 C.2       5 UNK         0.5055 
     38 O          27.0183   30.1008    1.6321 O.2       5 UNK        -0.5220 
     39 N          28.9357   29.1828    0.8560 N.am      6 UNK        -0.4450 
     40 CA         29.7162   30.4143    0.7069 C.3       6 UNK         0.0367 
     41 CB         30.8284   30.1803   -0.3310 C.3       6 UNK        -0.1929 
     42 C          30.2620   30.9105    2.0614 C.2       6 UNK         0.5070 
     43 O          31.4670   31.1135    2.2074 O.2       6 UNK        -0.5237 
     44 N          29.3555   31.1101    3.0277 N.am      7 UNK        -0.4739 
     45 CA         29.6213   31.4329    4.4357 C.3       7 UNK         0.0276 
     46 CB         28.3050   31.3122    5.2221 C.3       7 UNK        -0.1927 
     47 C          30.2955   32.7949    4.6945 C.2       7 UNK         0.5013 
     48 O          30.6834   33.0657    5.8319 O.2       7 UNK        -0.5193 
     49 N          30.4415   33.6221    3.6504 N.am      8 UNK        -0.4253 
     50 CA         31.2842   34.8202    3.6466 C.3       8 UNK         0.0242 
     51 CB         30.9617   35.6574    2.3981 C.3       8 UNK        -0.2000 
     52 C          32.7909   34.4915    3.7025 C.2       8 UNK         0.4948 
     53 O          33.5728   35.3468    4.1204 O.2       8 UNK        -0.5275 
     54 N          33.1677   33.2743    3.2897 N.am      9 UNK        -0.4246 
     55 CA         34.5104   32.7107    3.3908 C.3       9 UNK         0.0261 
     56 CB         34.9375   32.2313    1.9916 C.3       9 UNK        -0.1959 
     57 C          34.4943   31.5364    4.3828 C.2       9 UNK         0.5033 
     58 O          33.4261   31.0980    4.8174 O.2       9 UNK        -0.5390 
     59 N          35.6859   31.0268    4.7162 N.am      10 UNK        -0.4215 
     60 CA         35.8569   29.7989    5.4918 C.3       10 UNK         0.0240 
     61 CB         37.2854   29.7477    6.0625 C.3       10 UNK        -0.1982 
     62 C          35.5601   28.5848    4.5964 C.2       10 UNK         0.4970 
     63 O          36.3715   28.2703    3.7230 O.2       10 UNK        -0.4916 
     64 N          34.3952   27.9592    4.8012 N.am      11 UNK        -0.4279 
     65 CA         33.9319   26.7795    4.0570 C.3       11 UNK         0.1003 
     66 C          34.8670   25.5530    4.2462 C.2       11 UNK         0.5709 
     67 N          35.2158   24.8578    3.1720 N.am      11 UNK        -0.7358 
     68 O          35.2425   25.2064    5.3648 O.2       11 UNK        -0.4999 
     69 C69        32.4750   26.4003    4.4277 C.3       12 UNK        -0.0954 
     70 S70        31.2673   27.7378    4.1319 S.3       12 UNK        -0.2268 
     71 C71        30.0576   27.4487    5.4649 C.3       12 UNK         0.0203 
     72 H72        32.6409   27.5341    1.0534 H         1 UNK         0.0888 
     73 H73        33.3119   25.9990    0.4936 H         1 UNK         0.0888 
     74 H74        32.4008   27.0216   -0.6187 H         1 UNK         0.0888 
     75 H75        32.1021   24.2267    1.0979 H         1 UNK         0.3017 
     76 H76        29.3505   24.4761    2.0424 H         1 UNK         0.0873 
     77 H77        31.1268   23.1432    3.2701 H         1 UNK         0.0745 
     78 H78        31.1789   22.0132    1.9572 H         1 UNK         0.0745 
     79 H79        28.3753   21.9235    5.5062 H         1 UNK         0.0705 
     80 H80        30.0446   22.4171    5.3809 H         1 UNK         0.0705 
     81 H81        30.5157   24.7534    5.4323 H         1 UNK         0.1334 
     82 H82        27.4106   27.6466    4.8059 H         1 UNK         0.1417 
     83 H83        26.5835   23.4636    4.3391 H         1 UNK         0.1562 
     84 H84        25.0626   26.8108    4.7324 H         1 UNK         0.0748 
     85 H85        24.7508   25.1019    4.6404 H         1 UNK         0.0748 
     86 H86        25.6846   28.2737    3.0105 H         1 UNK         0.0940 
     87 H87        24.9451   28.1900    1.4400 H         1 UNK         0.0940 
     88 H88        27.7509   27.1441    2.0785 H         1 UNK         0.0703 
     89 H89        27.6903   26.1588    0.1208 H         1 UNK         0.3081 
     90 H90        25.7833   26.5582   -2.8687 H         1 UNK         0.0719 
     91 H91        28.0407   27.4265   -3.3232 H         1 UNK         0.0809 
     92 H92        28.7669   26.2852   -2.2048 H         1 UNK         0.0809 
     93 H93        28.0004   25.7072   -3.6834 H         1 UNK         0.0809 
     94 H94        27.2164   24.4533   -1.3961 H         1 UNK         0.2990 
     95 H95        24.8361   23.2851    0.3797 H         1 UNK         0.0690 
     96 H96        24.0180   21.1758   -0.7099 H         1 UNK         0.0788 
     97 H97        24.2266   21.9223   -2.2942 H         1 UNK         0.0788 
     98 H98        23.0607   22.5762   -1.1574 H         1 UNK         0.0788 
     99 H99        26.8143   22.3426    0.3930 H         1 UNK         0.2993 
    100 H100       28.4634   20.3415   -0.8518 H         1 UNK         0.0949 
    101 H101       29.7243   22.4547   -2.6811 H         1 UNK         0.0767 
    102 H102       30.5653   21.0512   -2.0239 H         1 UNK         0.0767 
    103 H103       29.2387   20.8310   -3.1504 H         1 UNK         0.0767 
    104 H104       29.4665   21.4603    0.7939 H         1 UNK         0.3013 
    105 H105       29.4291   28.3013    0.7034 H         1 UNK         0.3121 
    106 H106       29.0616   31.1968    0.3174 H         1 UNK         0.0774 
    107 H107       31.5419   29.4304    0.0086 H         1 UNK         0.0815 
    108 H108       30.4193   29.8479   -1.2851 H         1 UNK         0.0815 
    109 H109       31.3866   31.0983   -0.5191 H         1 UNK         0.0815 
    110 H110       28.3867   30.9301    2.7800 H         1 UNK         0.2987 
    111 H111       30.3163   30.6782    4.8106 H         1 UNK         0.0949 
    112 H112       27.8691   30.3184    5.1191 H         1 UNK         0.0806 
    113 H113       28.4662   31.4836    6.2873 H         1 UNK         0.0806 
    114 H114       27.5667   32.0396    4.8822 H         1 UNK         0.0806 
    115 H115       30.0793   33.3143    2.7600 H         1 UNK         0.3010 
    116 H116       31.0425   35.4121    4.5320 H         1 UNK         0.0829 
    117 H117       31.1786   35.1120    1.4786 H         1 UNK         0.0813 
    118 H118       31.5536   36.5737    2.3803 H         1 UNK         0.0813 
    119 H119       29.9121   35.9513    2.3765 H         1 UNK         0.0813 
    120 H120       32.4527   32.6001    3.0246 H         1 UNK         0.3038 
    121 H121       35.2206   33.4580    3.7506 H         1 UNK         0.0769 
    122 H122       34.9196   33.0499    1.2719 H         1 UNK         0.0811 
    123 H123       34.2781   31.4458    1.6185 H         1 UNK         0.0811 
    124 H124       35.9517   31.8309    1.9982 H         1 UNK         0.0811 
    125 H125       36.5192   31.4183    4.3008 H         1 UNK         0.3204 
    126 H126       35.1599   29.8049    6.3331 H         1 UNK         0.0748 
    127 H127       38.0411   29.7694    5.2761 H         1 UNK         0.0771 
    128 H128       37.4745   30.5876    6.7313 H         1 UNK         0.0771 
    129 H129       37.4407   28.8342    6.6381 H         1 UNK         0.0771 
    130 H130       33.7624   28.3156    5.5018 H         1 UNK         0.2980 
    131 H131       33.9477   27.0543    3.0015 H         1 UNK         0.0545 
    132 H132       34.9377   25.1442    2.2480 H         1 UNK         0.3459 
    133 H133       35.8111   24.0525    3.2870 H         1 UNK         0.3459 
    134 H134       32.4301   26.1033    5.4769 H         1 UNK         0.0616 
    135 H135       32.1514   25.5354    3.8464 H         1 UNK         0.0616 
    136 H136       30.5756   27.2282    6.3990 H         1 UNK         0.0634 
    137 H137       29.5153   28.3790    5.6370 H         1 UNK         0.0634 
@<TRIPOS>BOND
     1    1    2 1    
     2    1   72 1    
     3    1   73 1    
     4    1   74 1    
     5    2    3 2    
     6    2    4 am   BACKBONE|DICT|INTERRES
     7    4    5 1    
     8    4   75 1    
     9    5    6 1    
    10    5   35 1    
    11    5   76 1    
    12    6    7 1    
    13    6   77 1    
    14    6   78 1    
    15    7    8 1    
    16    8    9 1    
    17    8   79 1    
    18    8   80 1    
    19    9   10 ar   
    20    9   14 ar   
    21   10   11 ar   
    22   10   81 1    
    23   11   12 ar   
    24   11   71 1    
    25   12   13 ar   
    26   12   82 1    
    27   13   14 ar   
    28   13   15 1    
    29   14   83 1    
    30   15   16 1    
    31   15   84 1    
    32   15   85 1    
    33   16   17 1    
    34   17   18 1    
    35   17   86 1    
    36   17   87 1    
    37   18   19 1    
    38   18   37 1    
    39   18   88 1    
    40   19   20 am   BACKBONE|DICT|INTERRES
    41   19   89 1    
    42   20   21 2    
    43   20   22 1    
    44   22   23 1    
    45   22   24 1    
    46   22   90 1    
    47   23   91 1    
    48   23   92 1    
    49   23   93 1    
    50   24   25 am   BACKBONE|DICT|INTERRES
    51   24   94 1    
    52   25   26 2    
    53   25   27 1    
    54   27   28 1    
    55   27   29 1    
    56   27   95 1    
    57   28   96 1    
    58   28   97 1    
    59   28   98 1    
    60   29   30 am   BACKBONE|DICT|INTERRES
    61   29   99 1    
    62   30   31 2    
    63   30   32 1    
    64   32   33 1    
    65   32   34 1    
    66   32  100 1    
    67   33  101 1    
    68   33  102 1    
    69   33  103 1    
    70   34   35 am   BACKBONE|DICT|INTERRES
    71   34  104 1    
    72   35   36 2    
    73   37   38 2    
    74   37   39 am   BACKBONE|DICT|INTERRES
    75   39   40 1    
    76   39  105 1    
    77   40   41 1    
    78   40   42 1    
    79   40  106 1    
    80   41  107 1    
    81   41  108 1    
    82   41  109 1    
    83   42   43 2    
    84   42   44 am   BACKBONE|DICT|INTERRES
    85   44   45 1    
    86   44  110 1    
    87   45   46 1    
    88   45   47 1    
    89   45  111 1    
    90   46  112 1    
    91   46  113 1    
    92   46  114 1    
    93   47   48 2    
    94   47   49 am   BACKBONE|DICT|INTERRES
    95   49   50 1    
    96   49  115 1    
    97   50   51 1    
    98   50   52 1    
    99   50  116 1    
   100   51  117 1    
   101   51  118 1    
   102   51  119 1    
   103   52   53 2    
   104   52   54 am   BACKBONE|DICT|INTERRES
   105   54   55 1    
   106   54  120 1    
   107   55   56 1    
   108   55   57 1    
   109   55  121 1    
   110   56  122 1    
   111   56  123 1    
   112   56  124 1    
   113   57   58 2    
   114   57   59 am   BACKBONE|DICT|INTERRES
   115   59   60 1    
   116   59  125 1    
   117   60   61 1    
   118   60   62 1    
   119   60  126 1    
   120   61  127 1    
   121   61  128 1    
   122   61  129 1    
   123   62   63 2    
   124   62   64 am   BACKBONE|DICT|INTERRES
   125   64   65 1    
   126   64  130 1    
   127   65   66 1    
   128   65   69 1    
   129   65  131 1    
   130   66   67 am   BACKBONE|DICT|INTERRES
   131   66   68 2    
   132   67  132 1    
   133   67  133 1    
   134   69   70 1    
   135   69  134 1    
   136   69  135 1    
   137   70   71 1    
   138   71  136 1    
   139   71  137 1    
@<TRIPOS>SUBSTRUCTURE
     1 UNK         1 GROUP             0       ****    0 ROOT    
