@<TRIPOS>MOLECULE
3R136
137   139    1
SMALL
USER_CHARGES


@<TRIPOS>ATOM
      1 CA         29.8229   25.7421    4.9754 C.3       0 UNK        -0.1979 
      2 C          28.6331   25.0784    4.3022 C.2       0 UNK         0.4864 
      3 O          27.5058   25.2007    4.7851 O.2       0 UNK        -0.5359 
      4 N          28.8685   24.3816    3.1828 N.am      1 UNK        -0.4318 
      5 CA         27.8449   23.6841    2.3953 C.3       1 UNK         0.0824 
      6 C6         28.4414   22.5489    1.5202 C.3       12 UNK        -0.0944 
      7 S7         29.3761   21.3178    2.4922 S.3       12 UNK        -0.2672 
      8 C8         31.0523   21.4712    1.7914 C.3       12 UNK         0.0333 
      9 C9         31.6671   22.8350    2.0721 C.ar      12 UNK        -0.0807 
     10 C10        32.1822   23.1241    3.3408 C.ar      12 UNK        -0.0894 
     11 C11        32.7288   24.3815    3.6147 C.ar      12 UNK        -0.0804 
     12 C12        32.7555   25.3459    2.6053 C.ar      12 UNK        -0.0824 
     13 C13        32.2717   25.0635    1.3271 C.ar      12 UNK        -0.0762 
     14 C14        31.7259   23.8047    1.0643 C.ar      12 UNK        -0.0782 
     15 C15        32.3694   26.1201    0.2361 C.3       12 UNK         0.0230 
     16 S16        31.2805   27.5376    0.5727 S.3       12 UNK        -0.2608 
     17 C17        29.6557   26.8814    0.0651 C.3       12 UNK        -0.0989 
     18 CA         29.0489   27.6569   -1.1378 C.3       5 UNK         0.0716 
     19 N          28.0084   26.8929   -1.8196 N.am      5 UNK        -0.4135 
     20 C          28.2179   25.8748   -2.6608 C.2       4 UNK         0.5031 
     21 O          29.3411   25.4717   -2.9698 O.2       4 UNK        -0.5229 
     22 CA         26.9688   25.1900   -3.2436 C.3       4 UNK         0.0329 
     23 CB         27.2811   23.8394   -3.9206 C.3       4 UNK        -0.2001 
     24 N          25.9534   25.0027   -2.2067 N.am      4 UNK        -0.4303 
     25 C          24.6293   24.9755   -2.4167 C.2       3 UNK         0.5044 
     26 O          24.1133   25.1127   -3.5268 O.2       3 UNK        -0.5152 
     27 CA         23.7121   24.7544   -1.1947 C.3       3 UNK         0.0319 
     28 CB         23.2968   23.2774   -1.0994 C.3       3 UNK        -0.2001 
     29 N          24.3159   25.1623    0.0760 N.am      3 UNK        -0.4354 
     30 C          24.6216   26.4246    0.4051 C.2       2 UNK         0.4964 
     31 O          24.2866   27.3967   -0.2717 O.2       2 UNK        -0.5047 
     32 CA         25.4586   26.6549    1.6805 C.3       2 UNK         0.0288 
     33 CB         24.5766   27.2307    2.8007 C.3       2 UNK        -0.2113 
     34 N          26.1979   25.4982    2.2120 N.am      2 UNK        -0.4145 
     35 C          27.0494   24.7006    1.5505 C.2       1 UNK         0.5006 
     36 O          27.2377   24.7651    0.3358 O.2       1 UNK        -0.5103 
     37 C          28.4327   28.9885   -0.6834 C.2       5 UNK         0.5055 
     38 O          27.2137   29.0711   -0.5138 O.2       5 UNK        -0.5220 
     39 N          29.2919   29.9857   -0.4347 N.am      6 UNK        -0.4450 
     40 CA         28.9399   31.2092    0.2921 C.3       6 UNK         0.0367 
     41 CB         30.0569   32.2505    0.1165 C.3       6 UNK        -0.1929 
     42 C          28.6918   30.9384    1.7882 C.2       6 UNK         0.5070 
     43 O          27.8773   31.6307    2.3986 O.2       6 UNK        -0.5237 
     44 N          29.3939   29.9329    2.3368 N.am      7 UNK        -0.4739 
     45 CA         29.3316   29.3685    3.6925 C.3       7 UNK         0.0276 
     46 CB         27.9521   28.7394    3.9623 C.3       7 UNK        -0.1927 
     47 C          29.7393   30.3166    4.8343 C.2       7 UNK         0.5013 
     48 O          30.5145   29.9067    5.6988 O.2       7 UNK        -0.5193 
     49 N          29.2165   31.5486    4.8284 N.am      8 UNK        -0.4253 
     50 CA         29.4365   32.6022    5.8213 C.3       8 UNK         0.0242 
     51 CB         28.5369   33.8033    5.4799 C.3       8 UNK        -0.2000 
     52 C          30.9181   33.0069    5.9085 C.2       8 UNK         0.4948 
     53 O          31.3755   33.8259    5.1091 O.2       8 UNK        -0.5275 
     54 N          31.6353   32.3839    6.8558 N.am      9 UNK        -0.4246 
     55 CA         33.0823   32.4764    7.0868 C.3       9 UNK         0.0261 
     56 CB         33.4671   33.8833    7.5938 C.3       9 UNK        -0.1959 
     57 C          33.9239   32.0232    5.8740 C.2       9 UNK         0.5033 
     58 O          35.0151   32.5561    5.6594 O.2       9 UNK        -0.5390 
     59 N          33.4105   31.0525    5.1057 N.am      10 UNK        -0.4215 
     60 CA         34.0449   30.5139    3.9056 C.3       10 UNK         0.0240 
     61 CB         33.1692   30.8388    2.6819 C.3       10 UNK        -0.1982 
     62 C          34.2080   29.0009    4.0695 C.2       10 UNK         0.4970 
     63 O          33.2074   28.3123    4.2705 O.2       10 UNK        -0.4916 
     64 N          35.4529   28.5228    3.9659 N.am      11 UNK        -0.4279 
     65 CA         35.8486   27.1049    3.9576 C.3       11 UNK         0.1003 
     66 C          37.2955   26.9022    3.4169 C.2       11 UNK         0.5709 
     67 N          37.8111   27.7955    2.5783 N.am      11 UNK        -0.7358 
     68 O          37.9694   25.9307    3.7503 O.2       11 UNK        -0.4999 
     69 C69        35.5563   26.3734    5.3042 C.3       12 UNK        -0.0954 
     70 S70        35.0806   24.6225    5.0730 S.3       12 UNK        -0.2268 
     71 C71        33.2611   24.7105    5.0036 C.3       12 UNK         0.0203 
     72 H72        29.4977   26.5529    5.6265 H         1 UNK         0.0888 
     73 H73        30.3607   25.0162    5.5837 H         1 UNK         0.0888 
     74 H74        30.5076   26.1606    4.2387 H         1 UNK         0.0888 
     75 H75        29.8149   24.2976    2.8355 H         1 UNK         0.3017 
     76 H76        27.1394   23.2179    3.0868 H         1 UNK         0.0873 
     77 H77        29.0773   22.9552    0.7329 H         1 UNK         0.0745 
     78 H78        27.6399   22.0169    1.0041 H         1 UNK         0.0745 
     79 H79        31.0150   21.2743    0.7187 H         1 UNK         0.0705 
     80 H80        31.6857   20.6936    2.2207 H         1 UNK         0.0705 
     81 H81        32.1437   22.3721    4.1175 H         1 UNK         0.1334 
     82 H82        33.1466   26.3288    2.8090 H         1 UNK         0.1417 
     83 H83        31.3473   23.5806    0.0760 H         1 UNK         0.1562 
     84 H84        32.1398   25.7025   -0.7457 H         1 UNK         0.0748 
     85 H85        33.3990   26.4768    0.1821 H         1 UNK         0.0748 
     86 H86        28.9860   26.8979    0.9269 H         1 UNK         0.0940 
     87 H87        29.7705   25.8266   -0.1878 H         1 UNK         0.0940 
     88 H88        29.8308   27.8761   -1.8686 H         1 UNK         0.0703 
     89 H89        27.0668   27.2104   -1.6225 H         1 UNK         0.3081 
     90 H90        26.5799   25.8715   -4.0031 H         1 UNK         0.0719 
     91 H91        28.0125   23.9597   -4.7207 H         1 UNK         0.0809 
     92 H92        27.6881   23.1213   -3.2077 H         1 UNK         0.0809 
     93 H93        26.3883   23.4006   -4.3661 H         1 UNK         0.0809 
     94 H94        26.3126   24.8904   -1.2589 H         1 UNK         0.2990 
     95 H95        22.8123   25.3542   -1.3478 H         1 UNK         0.0690 
     96 H96        22.5864   23.1155   -0.2884 H         1 UNK         0.0788 
     97 H97        24.1559   22.6266   -0.9308 H         1 UNK         0.0788 
     98 H98        22.8144   22.9477   -2.0207 H         1 UNK         0.0788 
     99 H99        24.6264   24.4240    0.6899 H         1 UNK         0.2993 
    100 H100       26.2052   27.4066    1.4179 H         1 UNK         0.0949 
    101 H101       24.0529   28.1276    2.4664 H         1 UNK         0.0767 
    102 H102       23.8223   26.5131    3.1258 H         1 UNK         0.0767 
    103 H103       25.1694   27.5116    3.6715 H         1 UNK         0.0767 
    104 H104       26.1854   25.3921    3.2218 H         1 UNK         0.3013 
    105 H105       30.2742   29.8299   -0.6149 H         1 UNK         0.3121 
    106 H106       28.0185   31.6140   -0.1325 H         1 UNK         0.0774 
    107 H107       29.8087   33.1776    0.6354 H         1 UNK         0.0815 
    108 H108       31.0082   31.8986    0.5178 H         1 UNK         0.0815 
    109 H109       30.2059   32.4993   -0.9343 H         1 UNK         0.0815 
    110 H110       30.0497   29.4621    1.7279 H         1 UNK         0.2987 
    111 H111       30.0659   28.5608    3.7007 H         1 UNK         0.0949 
    112 H112       27.9055   28.3021    4.9603 H         1 UNK         0.0806 
    113 H113       27.7420   27.9420    3.2510 H         1 UNK         0.0806 
    114 H114       27.1464   29.4707    3.8942 H         1 UNK         0.0806 
    115 H115       28.6158   31.7783    4.0385 H         1 UNK         0.3010 
    116 H116       29.1239   32.2169    6.7940 H         1 UNK         0.0829 
    117 H117       28.7488   34.1974    4.4848 H         1 UNK         0.0813 
    118 H118       27.4819   33.5303    5.5123 H         1 UNK         0.0813 
    119 H119       28.6838   34.6165    6.1919 H         1 UNK         0.0813 
    120 H120       31.1579   31.6832    7.4079 H         1 UNK         0.3038 
    121 H121       33.3072   31.7678    7.8853 H         1 UNK         0.0769 
    122 H122       34.5130   33.9168    7.9015 H         1 UNK         0.0811 
    123 H123       32.8683   34.1719    8.4576 H         1 UNK         0.0811 
    124 H124       33.3317   34.6422    6.8226 H         1 UNK         0.0811 
    125 H125       32.5329   30.6177    5.3752 H         1 UNK         0.3204 
    126 H126       35.0280   30.9625    3.7484 H         1 UNK         0.0748 
    127 H127       33.6167   30.4517    1.7655 H         1 UNK         0.0771 
    128 H128       32.1752   30.4003    2.7691 H         1 UNK         0.0771 
    129 H129       33.0478   31.9151    2.5576 H         1 UNK         0.0771 
    130 H130       36.2184   29.1715    3.8482 H         1 UNK         0.2980 
    131 H131       35.2380   26.6419    3.1856 H         1 UNK         0.0545 
    132 H132       37.2653   28.5606    2.2170 H         1 UNK         0.3459 
    133 H133       38.7498   27.6520    2.2397 H         1 UNK         0.3459 
    134 H134       36.4260   26.4136    5.9620 H         1 UNK         0.0616 
    135 H135       34.7644   26.8683    5.8661 H         1 UNK         0.0616 
    136 H136       32.9103   25.6986    5.3032 H         1 UNK         0.0634 
    137 H137       32.8545   24.0130    5.7373 H         1 UNK         0.0634 
@<TRIPOS>BOND
     1    1    2 1    
     2    1   72 1    
     3    1   73 1    
     4    1   74 1    
     5    2    3 2    
     6    2    4 am   BACKBONE|DICT|INTERRES
     7    4    5 1    
     8    4   75 1    
     9    5    6 1    
    10    5   35 1    
    11    5   76 1    
    12    6    7 1    
    13    6   77 1    
    14    6   78 1    
    15    7    8 1    
    16    8    9 1    
    17    8   79 1    
    18    8   80 1    
    19    9   10 ar   
    20    9   14 ar   
    21   10   11 ar   
    22   10   81 1    
    23   11   12 ar   
    24   11   71 1    
    25   12   13 ar   
    26   12   82 1    
    27   13   14 ar   
    28   13   15 1    
    29   14   83 1    
    30   15   16 1    
    31   15   84 1    
    32   15   85 1    
    33   16   17 1    
    34   17   18 1    
    35   17   86 1    
    36   17   87 1    
    37   18   19 1    
    38   18   37 1    
    39   18   88 1    
    40   19   20 am   BACKBONE|DICT|INTERRES
    41   19   89 1    
    42   20   21 2    
    43   20   22 1    
    44   22   23 1    
    45   22   24 1    
    46   22   90 1    
    47   23   91 1    
    48   23   92 1    
    49   23   93 1    
    50   24   25 am   BACKBONE|DICT|INTERRES
    51   24   94 1    
    52   25   26 2    
    53   25   27 1    
    54   27   28 1    
    55   27   29 1    
    56   27   95 1    
    57   28   96 1    
    58   28   97 1    
    59   28   98 1    
    60   29   30 am   BACKBONE|DICT|INTERRES
    61   29   99 1    
    62   30   31 2    
    63   30   32 1    
    64   32   33 1    
    65   32   34 1    
    66   32  100 1    
    67   33  101 1    
    68   33  102 1    
    69   33  103 1    
    70   34   35 am   BACKBONE|DICT|INTERRES
    71   34  104 1    
    72   35   36 2    
    73   37   38 2    
    74   37   39 am   BACKBONE|DICT|INTERRES
    75   39   40 1    
    76   39  105 1    
    77   40   41 1    
    78   40   42 1    
    79   40  106 1    
    80   41  107 1    
    81   41  108 1    
    82   41  109 1    
    83   42   43 2    
    84   42   44 am   BACKBONE|DICT|INTERRES
    85   44   45 1    
    86   44  110 1    
    87   45   46 1    
    88   45   47 1    
    89   45  111 1    
    90   46  112 1    
    91   46  113 1    
    92   46  114 1    
    93   47   48 2    
    94   47   49 am   BACKBONE|DICT|INTERRES
    95   49   50 1    
    96   49  115 1    
    97   50   51 1    
    98   50   52 1    
    99   50  116 1    
   100   51  117 1    
   101   51  118 1    
   102   51  119 1    
   103   52   53 2    
   104   52   54 am   BACKBONE|DICT|INTERRES
   105   54   55 1    
   106   54  120 1    
   107   55   56 1    
   108   55   57 1    
   109   55  121 1    
   110   56  122 1    
   111   56  123 1    
   112   56  124 1    
   113   57   58 2    
   114   57   59 am   BACKBONE|DICT|INTERRES
   115   59   60 1    
   116   59  125 1    
   117   60   61 1    
   118   60   62 1    
   119   60  126 1    
   120   61  127 1    
   121   61  128 1    
   122   61  129 1    
   123   62   63 2    
   124   62   64 am   BACKBONE|DICT|INTERRES
   125   64   65 1    
   126   64  130 1    
   127   65   66 1    
   128   65   69 1    
   129   65  131 1    
   130   66   67 am   BACKBONE|DICT|INTERRES
   131   66   68 2    
   132   67  132 1    
   133   67  133 1    
   134   69   70 1    
   135   69  134 1    
   136   69  135 1    
   137   70   71 1    
   138   71  136 1    
   139   71  137 1    
@<TRIPOS>SUBSTRUCTURE
     1 UNK         1 GROUP             0       ****    0 ROOT    
