@<TRIPOS>MOLECULE
3R136
137   139    1
SMALL
USER_CHARGES


@<TRIPOS>ATOM
      1 CA         26.9682   22.9204    2.2084 C.3       0 UNK        -0.1979 
      2 C          27.3107   21.6912    1.3835 C.2       0 UNK         0.4864 
      3 O          26.4117   21.0632    0.8222 O.2       0 UNK        -0.5359 
      4 N          28.6008   21.3364    1.3100 N.am      1 UNK        -0.4318 
      5 CA         29.0965   20.1539    0.5904 C.3       1 UNK         0.0824 
      6 C6         30.5114   19.7248    1.0538 C.3       12 UNK        -0.0944 
      7 S7         30.6178   19.4425    2.8550 S.3       12 UNK        -0.2672 
      8 C8         31.8539   20.6806    3.3621 C.3       12 UNK         0.0333 
      9 C9         31.3044   22.0987    3.3004 C.ar      12 UNK        -0.0807 
     10 C10        31.5561   22.9054    2.1860 C.ar      12 UNK        -0.0894 
     11 C11        31.0592   24.2094    2.1295 C.ar      12 UNK        -0.0804 
     12 C12        30.3206   24.7094    3.2024 C.ar      12 UNK        -0.0824 
     13 C13        30.0835   23.9260    4.3348 C.ar      12 UNK        -0.0762 
     14 C14        30.5674   22.6142    4.3722 C.ar      12 UNK        -0.0782 
     15 C15        29.3436   24.5134    5.5292 C.3       12 UNK         0.0230 
     16 S16        27.6133   24.9115    5.1283 S.3       12 UNK        -0.2608 
     17 C17        27.5407   26.7063    5.4681 C.3       12 UNK        -0.0989 
     18 CA         27.9076   27.5982    4.2489 C.3       5 UNK         0.0716 
     19 N          27.1590   27.2107    3.0446 N.am      5 UNK        -0.4135 
     20 C          27.5262   27.4427    1.7791 C.2       4 UNK         0.5031 
     21 O          28.5589   28.0416    1.4672 O.2       4 UNK        -0.5229 
     22 CA         26.5255   27.0118    0.6936 C.3       4 UNK         0.0329 
     23 CB         25.4502   28.0955    0.5070 C.3       4 UNK        -0.2001 
     24 N          27.1816   26.7716   -0.5928 N.am      4 UNK        -0.4303 
     25 C          27.9574   25.7146   -0.8563 C.2       3 UNK         0.5044 
     26 O          28.1569   24.7937   -0.0598 O.2       3 UNK        -0.5152 
     27 CA         28.6343   25.6922   -2.2391 C.3       3 UNK         0.0319 
     28 CB         29.8107   26.6827   -2.2950 C.3       3 UNK        -0.2001 
     29 N          29.1289   24.3493   -2.5436 N.am      3 UNK        -0.4354 
     30 C          28.3514   23.3277   -2.9246 C.2       2 UNK         0.4964 
     31 O          27.1726   23.4408   -3.2629 O.2       2 UNK        -0.5047 
     32 CA         28.9843   21.9383   -2.8379 C.3       2 UNK         0.0288 
     33 CB         30.3773   21.8622   -3.4971 C.3       2 UNK        -0.2113 
     34 N          29.0558   21.5764   -1.4248 N.am      2 UNK        -0.4145 
     35 C          29.0679   20.3265   -0.9446 C.2       1 UNK         0.5006 
     36 O          29.0633   19.3229   -1.6605 O.2       1 UNK        -0.5103 
     37 C          27.7442   29.1069    4.5602 C.2       5 UNK         0.5055 
     38 O          27.4208   29.4731    5.6923 O.2       5 UNK        -0.5220 
     39 N          27.9259   29.9588    3.5434 N.am      6 UNK        -0.4450 
     40 CA         27.7763   31.4093    3.6253 C.3       6 UNK         0.0367 
     41 CB         27.5763   31.9750    2.2097 C.3       6 UNK        -0.1929 
     42 C          29.0031   32.0474    4.2870 C.2       6 UNK         0.5070 
     43 O          30.1316   31.7299    3.9053 O.2       6 UNK        -0.5237 
     44 N          28.7682   32.9820    5.2166 N.am      7 UNK        -0.4739 
     45 CA         29.8124   33.7241    5.9348 C.3       7 UNK         0.0276 
     46 CB         29.1709   34.5346    7.0724 C.3       7 UNK        -0.1927 
     47 C          30.6566   34.6399    5.0300 C.2       7 UNK         0.5013 
     48 O          31.8256   34.8740    5.3349 O.2       7 UNK        -0.5193 
     49 N          30.0607   35.1160    3.9266 N.am      8 UNK        -0.4253 
     50 CA         30.7359   35.8918    2.8831 C.3       8 UNK         0.0242 
     51 CB         29.6857   36.5257    1.9564 C.3       8 UNK        -0.2000 
     52 C          31.7374   35.0517    2.0702 C.2       8 UNK         0.4948 
     53 O          32.7746   35.5780    1.6654 O.2       8 UNK        -0.5275 
     54 N          31.4156   33.7678    1.8540 N.am      9 UNK        -0.4246 
     55 CA         32.3000   32.7921    1.2137 C.3       9 UNK         0.0261 
     56 CB         31.4583   31.6667    0.5864 C.3       9 UNK        -0.1959 
     57 C          33.3177   32.2101    2.2078 C.2       9 UNK         0.5033 
     58 O          34.4509   31.9327    1.8141 O.2       9 UNK        -0.5390 
     59 N          32.8818   32.0219    3.4639 N.am      10 UNK        -0.4215 
     60 CA         33.5982   31.3999    4.5843 C.3       10 UNK         0.0240 
     61 CB         34.8489   32.2155    4.9756 C.3       10 UNK        -0.1982 
     62 C          33.8935   29.9051    4.3467 C.2       10 UNK         0.4970 
     63 O          34.8742   29.3788    4.8758 O.2       10 UNK        -0.4916 
     64 N          33.0352   29.2515    3.5540 N.am      11 UNK        -0.4279 
     65 CA         33.0890   27.8210    3.2419 C.3       11 UNK         0.1003 
     66 C          32.6454   26.9609    4.4553 C.2       11 UNK         0.5709 
     67 N          33.3151   25.8455    4.7092 N.am      11 UNK        -0.7358 
     68 O          31.6829   27.2874    5.1478 O.2       11 UNK        -0.4999 
     69 C69        32.2559   27.5228    1.9680 C.3       12 UNK        -0.0954 
     70 S70        32.8421   26.0490    1.0657 S.3       12 UNK        -0.2268 
     71 C71        31.3150   25.0754    0.9077 C.3       12 UNK         0.0203 
     72 H72        27.8498   23.5300    2.4008 H         1 UNK         0.0888 
     73 H73        26.2462   23.5410    1.6790 H         1 UNK         0.0888 
     74 H74        26.5360   22.6274    3.1645 H         1 UNK         0.0888 
     75 H75        29.2964   21.8674    1.8178 H         1 UNK         0.3017 
     76 H76        28.4178   19.3287    0.8181 H         1 UNK         0.0873 
     77 H77        31.2586   20.4561    0.7449 H         1 UNK         0.0745 
     78 H78        30.7965   18.7906    0.5657 H         1 UNK         0.0745 
     79 H79        32.1730   20.4583    4.3815 H         1 UNK         0.0705 
     80 H80        32.7457   20.5840    2.7407 H         1 UNK         0.0705 
     81 H81        32.1429   22.5235    1.3621 H         1 UNK         0.1334 
     82 H82        29.9414   25.7178    3.1600 H         1 UNK         0.1417 
     83 H83        30.3863   21.9965    5.2416 H         1 UNK         0.1562 
     84 H84        29.8748   25.4032    5.8677 H         1 UNK         0.0748 
     85 H85        29.3526   23.8183    6.3700 H         1 UNK         0.0748 
     86 H86        26.5240   26.9257    5.8003 H         1 UNK         0.0940 
     87 H87        28.1834   26.9374    6.3199 H         1 UNK         0.0940 
     88 H88        28.9712   27.4595    4.0524 H         1 UNK         0.0703 
     89 H89        26.2820   26.7407    3.2156 H         1 UNK         0.3081 
     90 H90        26.0417   26.0857    1.0120 H         1 UNK         0.0719 
     91 H91        24.9092   28.2790    1.4364 H         1 UNK         0.0809 
     92 H92        25.8846   29.0454    0.1917 H         1 UNK         0.0809 
     93 H93        24.7131   27.7991   -0.2396 H         1 UNK         0.0809 
     94 H94        27.1040   27.5039   -1.2830 H         1 UNK         0.2990 
     95 H95        27.8958   25.9803   -2.9906 H         1 UNK         0.0690 
     96 H96        30.2651   26.6987   -3.2858 H         1 UNK         0.0788 
     97 H97        30.5906   26.4333   -1.5759 H         1 UNK         0.0788 
     98 H98        29.4826   27.6996   -2.0759 H         1 UNK         0.0788 
     99 H99        30.0783   24.1498   -2.2672 H         1 UNK         0.2993 
    100 H100       28.3159   21.2450   -3.3539 H         1 UNK         0.0949 
    101 H101       30.7307   20.8320   -3.5449 H         1 UNK         0.0767 
    102 H102       30.3469   22.2390   -4.5204 H         1 UNK         0.0767 
    103 H103       31.1254   22.4397   -2.9532 H         1 UNK         0.0767 
    104 H104       28.9866   22.3433   -0.7672 H         1 UNK         0.3013 
    105 H105       28.2404   29.5711    2.6586 H         1 UNK         0.3121 
    106 H106       26.8870   31.6365    4.2173 H         1 UNK         0.0774 
    107 H107       28.4269   31.7593    1.5620 H         1 UNK         0.0815 
    108 H108       26.6863   31.5561    1.7396 H         1 UNK         0.0815 
    109 H109       27.4485   33.0580    2.2334 H         1 UNK         0.0815 
    110 H110       27.8118   33.1883    5.4699 H         1 UNK         0.2987 
    111 H111       30.4939   32.9937    6.3774 H         1 UNK         0.0949 
    112 H112       28.6464   33.8868    7.7751 H         1 UNK         0.0806 
    113 H113       29.9284   35.0774    7.6399 H         1 UNK         0.0806 
    114 H114       28.4585   35.2693    6.6948 H         1 UNK         0.0806 
    115 H115       29.0876   34.8921    3.7784 H         1 UNK         0.3010 
    116 H116       31.2954   36.6957    3.3670 H         1 UNK         0.0829 
    117 H117       29.0786   35.7717    1.4537 H         1 UNK         0.0813 
    118 H118       30.1632   37.1282    1.1821 H         1 UNK         0.0813 
    119 H119       29.0151   37.1846    2.5084 H         1 UNK         0.0813 
    120 H120       30.5548   33.4131    2.2448 H         1 UNK         0.3038 
    121 H121       32.8558   33.2857    0.4131 H         1 UNK         0.0769 
    122 H122       30.7588   32.0593   -0.1517 H         1 UNK         0.0811 
    123 H123       30.8840   31.1179    1.3336 H         1 UNK         0.0811 
    124 H124       32.0960   30.9447    0.0743 H         1 UNK         0.0811 
    125 H125       31.8935   32.1926    3.6420 H         1 UNK         0.3204 
    126 H126       32.9095   31.4349    5.4298 H         1 UNK         0.0748 
    127 H127       35.6225   32.1675    4.2087 H         1 UNK         0.0771 
    128 H128       34.6001   33.2646    5.1377 H         1 UNK         0.0771 
    129 H129       35.2866   31.8404    5.9015 H         1 UNK         0.0771 
    130 H130       32.2288   29.7513    3.2116 H         1 UNK         0.2980 
    131 H131       34.1345   27.5913    3.0253 H         1 UNK         0.0545 
    132 H132       34.0819   25.5561    4.1232 H         1 UNK         0.3459 
    133 H133       33.0260   25.2663    5.4803 H         1 UNK         0.3459 
    134 H134       32.3400   28.3524    1.2637 H         1 UNK         0.0616 
    135 H135       31.1924   27.4482    2.1989 H         1 UNK         0.0616 
    136 H136       30.4743   25.7484    0.7404 H         1 UNK         0.0634 
    137 H137       31.3861   24.4479    0.0184 H         1 UNK         0.0634 
@<TRIPOS>BOND
     1    1    2 1    
     2    1   72 1    
     3    1   73 1    
     4    1   74 1    
     5    2    3 2    
     6    2    4 am   BACKBONE|DICT|INTERRES
     7    4    5 1    
     8    4   75 1    
     9    5    6 1    
    10    5   35 1    
    11    5   76 1    
    12    6    7 1    
    13    6   77 1    
    14    6   78 1    
    15    7    8 1    
    16    8    9 1    
    17    8   79 1    
    18    8   80 1    
    19    9   10 ar   
    20    9   14 ar   
    21   10   11 ar   
    22   10   81 1    
    23   11   12 ar   
    24   11   71 1    
    25   12   13 ar   
    26   12   82 1    
    27   13   14 ar   
    28   13   15 1    
    29   14   83 1    
    30   15   16 1    
    31   15   84 1    
    32   15   85 1    
    33   16   17 1    
    34   17   18 1    
    35   17   86 1    
    36   17   87 1    
    37   18   19 1    
    38   18   37 1    
    39   18   88 1    
    40   19   20 am   BACKBONE|DICT|INTERRES
    41   19   89 1    
    42   20   21 2    
    43   20   22 1    
    44   22   23 1    
    45   22   24 1    
    46   22   90 1    
    47   23   91 1    
    48   23   92 1    
    49   23   93 1    
    50   24   25 am   BACKBONE|DICT|INTERRES
    51   24   94 1    
    52   25   26 2    
    53   25   27 1    
    54   27   28 1    
    55   27   29 1    
    56   27   95 1    
    57   28   96 1    
    58   28   97 1    
    59   28   98 1    
    60   29   30 am   BACKBONE|DICT|INTERRES
    61   29   99 1    
    62   30   31 2    
    63   30   32 1    
    64   32   33 1    
    65   32   34 1    
    66   32  100 1    
    67   33  101 1    
    68   33  102 1    
    69   33  103 1    
    70   34   35 am   BACKBONE|DICT|INTERRES
    71   34  104 1    
    72   35   36 2    
    73   37   38 2    
    74   37   39 am   BACKBONE|DICT|INTERRES
    75   39   40 1    
    76   39  105 1    
    77   40   41 1    
    78   40   42 1    
    79   40  106 1    
    80   41  107 1    
    81   41  108 1    
    82   41  109 1    
    83   42   43 2    
    84   42   44 am   BACKBONE|DICT|INTERRES
    85   44   45 1    
    86   44  110 1    
    87   45   46 1    
    88   45   47 1    
    89   45  111 1    
    90   46  112 1    
    91   46  113 1    
    92   46  114 1    
    93   47   48 2    
    94   47   49 am   BACKBONE|DICT|INTERRES
    95   49   50 1    
    96   49  115 1    
    97   50   51 1    
    98   50   52 1    
    99   50  116 1    
   100   51  117 1    
   101   51  118 1    
   102   51  119 1    
   103   52   53 2    
   104   52   54 am   BACKBONE|DICT|INTERRES
   105   54   55 1    
   106   54  120 1    
   107   55   56 1    
   108   55   57 1    
   109   55  121 1    
   110   56  122 1    
   111   56  123 1    
   112   56  124 1    
   113   57   58 2    
   114   57   59 am   BACKBONE|DICT|INTERRES
   115   59   60 1    
   116   59  125 1    
   117   60   61 1    
   118   60   62 1    
   119   60  126 1    
   120   61  127 1    
   121   61  128 1    
   122   61  129 1    
   123   62   63 2    
   124   62   64 am   BACKBONE|DICT|INTERRES
   125   64   65 1    
   126   64  130 1    
   127   65   66 1    
   128   65   69 1    
   129   65  131 1    
   130   66   67 am   BACKBONE|DICT|INTERRES
   131   66   68 2    
   132   67  132 1    
   133   67  133 1    
   134   69   70 1    
   135   69  134 1    
   136   69  135 1    
   137   70   71 1    
   138   71  136 1    
   139   71  137 1    
@<TRIPOS>SUBSTRUCTURE
     1 UNK         1 GROUP             0       ****    0 ROOT    
