@<TRIPOS>MOLECULE
3R136
137   139    1
SMALL
USER_CHARGES


@<TRIPOS>ATOM
      1 CA         30.9895   21.4398   -2.0859 C.3       0 UNK        -0.1979 
      2 C          30.3793   22.7059   -2.6675 C.2       0 UNK         0.4864 
      3 O          30.0838   22.7546   -3.8627 O.2       0 UNK        -0.5359 
      4 N          30.1654   23.7288   -1.8302 N.am      1 UNK        -0.4318 
      5 CA         29.6057   25.0408   -2.1816 C.3       1 UNK         0.0824 
      6 C6         30.0850   26.1378   -1.1905 C.3       12 UNK        -0.0944 
      7 S7         29.6891   25.8078    0.5639 S.3       12 UNK        -0.2672 
      8 C8         31.2754   25.1755    1.2012 C.3       12 UNK         0.0333 
      9 C9         31.1449   24.8794    2.6846 C.ar      12 UNK        -0.0807 
     10 C10        31.7482   25.7119    3.6320 C.ar      12 UNK        -0.0894 
     11 C11        31.5200   25.5095    4.9963 C.ar      12 UNK        -0.0804 
     12 C12        30.6778   24.4730    5.4101 C.ar      12 UNK        -0.0824 
     13 C13        30.0674   23.6386    4.4686 C.ar      12 UNK        -0.0762 
     14 C14        30.3416   23.8173    3.1099 C.ar      12 UNK        -0.0782 
     15 C15        29.0213   22.6225    4.9030 C.3       12 UNK         0.0230 
     16 S16        27.3531   23.0933    4.3187 S.3       12 UNK        -0.2608 
     17 C17        27.1477   24.7692    5.0258 C.3       12 UNK        -0.0989 
     18 CA         27.5597   25.8901    4.0288 C.3       5 UNK         0.0716 
     19 N          26.7888   25.8810    2.7803 N.am      5 UNK        -0.4135 
     20 C          25.5132   26.2589    2.6149 C.2       4 UNK         0.5031 
     21 O          24.7900   26.6930    3.5121 O.2       4 UNK        -0.5229 
     22 CA         24.9494   26.1255    1.1910 C.3       4 UNK         0.0329 
     23 CB         25.3357   27.3487    0.3435 C.3       4 UNK        -0.2001 
     24 N          25.3954   24.8995    0.5218 N.am      4 UNK        -0.4303 
     25 C          24.9745   23.6674    0.8548 C.2       3 UNK         0.5044 
     26 O          24.1492   23.4556    1.7452 O.2       3 UNK        -0.5152 
     27 CA         25.5706   22.4698    0.0809 C.3       3 UNK         0.0319 
     28 CB         24.6097   21.2633    0.0156 C.3       3 UNK        -0.2001 
     29 N          26.0705   22.8112   -1.2563 N.am      3 UNK        -0.4354 
     30 C          25.3775   23.3157   -2.2907 C.2       2 UNK         0.4964 
     31 O          24.1554   23.4713   -2.2874 O.2       2 UNK        -0.5047 
     32 CA         26.2004   23.7415   -3.5281 C.3       2 UNK         0.0288 
     33 CB         25.5385   24.9029   -4.3005 C.3       2 UNK        -0.2113 
     34 N          27.6052   24.0639   -3.2271 N.am      2 UNK        -0.4145 
     35 C          28.0690   24.9831   -2.3652 C.2       1 UNK         0.5006 
     36 O          27.3316   25.7111   -1.6981 O.2       1 UNK        -0.5103 
     37 C          27.6448   27.2920    4.6673 C.2       5 UNK         0.5055 
     38 O          27.4354   27.4456    5.8724 O.2       5 UNK        -0.5220 
     39 N          27.9563   28.2889    3.8297 N.am      6 UNK        -0.4450 
     40 CA         28.1499   29.6883    4.2043 C.3       6 UNK         0.0367 
     41 CB         26.7884   30.3763    4.4392 C.3       6 UNK        -0.1929 
     42 C          29.0017   30.3922    3.1357 C.2       6 UNK         0.5070 
     43 O          28.6808   31.5108    2.7311 O.2       6 UNK        -0.5237 
     44 N          30.0539   29.7111    2.6580 N.am      7 UNK        -0.4739 
     45 CA         30.9813   30.2333    1.6519 C.3       7 UNK         0.0276 
     46 CB         31.8490   29.0877    1.1075 C.3       7 UNK        -0.1927 
     47 C          31.8623   31.3358    2.2531 C.2       7 UNK         0.5013 
     48 O          32.5670   31.0690    3.2284 O.2       7 UNK        -0.5193 
     49 N          31.8279   32.5381    1.6624 N.am      8 UNK        -0.4253 
     50 CA         32.5185   33.7424    2.1473 C.3       8 UNK         0.0242 
     51 CB         32.1278   34.9383    1.2637 C.3       8 UNK        -0.2000 
     52 C          34.0516   33.6224    2.2399 C.2       8 UNK         0.4948 
     53 O          34.6644   34.3329    3.0370 O.2       8 UNK        -0.5275 
     54 N          34.6392   32.7172    1.4463 N.am      9 UNK        -0.4246 
     55 CA         36.0575   32.3553    1.4940 C.3       9 UNK         0.0261 
     56 CB         36.4352   31.6671    0.1710 C.3       9 UNK        -0.1959 
     57 C          36.4267   31.4562    2.6925 C.2       9 UNK         0.5033 
     58 O          37.6188   31.2764    2.9487 O.2       9 UNK        -0.5390 
     59 N          35.4269   30.8925    3.3833 N.am      10 UNK        -0.4215 
     60 CA         35.5786   29.9842    4.5137 C.3       10 UNK         0.0240 
     61 CB         35.2262   28.5514    4.0565 C.3       10 UNK        -0.1982 
     62 C          34.7272   30.5068    5.6821 C.2       10 UNK         0.4970 
     63 O          35.0765   31.5335    6.2660 O.2       10 UNK        -0.4916 
     64 N          33.6527   29.7860    6.0195 N.am      11 UNK        -0.4279 
     65 CA         32.7495   30.0591    7.1459 C.3       11 UNK         0.1003 
     66 C          31.7669   31.2520    6.9590 C.2       11 UNK         0.5709 
     67 N          31.6047   31.8127    5.7687 N.am      11 UNK        -0.7358 
     68 O          31.1492   31.6903    7.9268 O.2       11 UNK        -0.4999 
     69 C69        32.0239   28.7653    7.6024 C.3       12 UNK        -0.0954 
     70 S70        31.1120   27.9184    6.2640 S.3       12 UNK        -0.2268 
     71 C71        32.1432   26.4399    6.0227 C.3       12 UNK         0.0203 
     72 H72        31.9282   21.2113   -2.5900 H         1 UNK         0.0888 
     73 H73        31.1925   21.5367   -1.0195 H         1 UNK         0.0888 
     74 H74        30.3128   20.5976   -2.2276 H         1 UNK         0.0888 
     75 H75        30.3849   23.6166   -0.8517 H         1 UNK         0.3017 
     76 H76        30.0025   25.3175   -3.1611 H         1 UNK         0.0873 
     77 H77        31.1636   26.2696   -1.2891 H         1 UNK         0.0745 
     78 H78        29.6543   27.1044   -1.4588 H         1 UNK         0.0745 
     79 H79        32.0619   25.9096    1.0197 H         1 UNK         0.0705 
     80 H80        31.5629   24.2682    0.6693 H         1 UNK         0.0705 
     81 H81        32.3665   26.5380    3.3098 H         1 UNK         0.1334 
     82 H82        30.4625   24.3471    6.4626 H         1 UNK         0.1417 
     83 H83        29.8464   23.1923    2.3790 H         1 UNK         0.1562 
     84 H84        29.0047   22.5171    5.9890 H         1 UNK         0.0748 
     85 H85        29.2784   21.6417    4.5007 H         1 UNK         0.0748 
     86 H86        27.7335   24.8307    5.9448 H         1 UNK         0.0940 
     87 H87        26.1060   24.8953    5.3254 H         1 UNK         0.0940 
     88 H88        28.5822   25.7005    3.7181 H         1 UNK         0.0703 
     89 H89        27.2859   25.5421    1.9688 H         1 UNK         0.3081 
     90 H90        23.8601   26.0952    1.2640 H         1 UNK         0.0719 
     91 H91        24.9753   28.2708    0.8016 H         1 UNK         0.0809 
     92 H92        26.4170   27.4403    0.2318 H         1 UNK         0.0809 
     93 H93        24.9026   27.2907   -0.6553 H         1 UNK         0.0809 
     94 H94        26.0557   25.0123   -0.2414 H         1 UNK         0.2990 
     95 H95        26.4445   22.1586    0.6554 H         1 UNK         0.0690 
     96 H96        23.6729   21.5181   -0.4808 H         1 UNK         0.0788 
     97 H97        24.3598   20.9063    1.0156 H         1 UNK         0.0788 
     98 H98        25.0577   20.4271   -0.5211 H         1 UNK         0.0788 
     99 H99        27.0694   22.7249   -1.3764 H         1 UNK         0.2993 
    100 H100       26.2199   22.8723   -4.1874 H         1 UNK         0.0949 
    101 H101       25.4258   25.7902   -3.6762 H         1 UNK         0.0767 
    102 H102       26.1243   25.1813   -5.1765 H         1 UNK         0.0767 
    103 H103       24.5445   24.6252   -4.6535 H         1 UNK         0.0767 
    104 H104       28.3060   23.4953   -3.6981 H         1 UNK         0.3013 
    105 H105       28.1036   28.0742    2.8525 H         1 UNK         0.3121 
    106 H106       28.7233   29.7274    5.1333 H         1 UNK         0.0774 
    107 H107       26.9208   31.4172    4.7368 H         1 UNK         0.0815 
    108 H108       26.1751   30.3669    3.5375 H         1 UNK         0.0815 
    109 H109       26.2235   29.8871    5.2325 H         1 UNK         0.0815 
    110 H110       30.2915   28.8246    3.0788 H         1 UNK         0.2987 
    111 H111       30.3998   30.6463    0.8245 H         1 UNK         0.0949 
    112 H112       32.5665   29.4539    0.3721 H         1 UNK         0.0806 
    113 H113       32.4156   28.5952    1.8979 H         1 UNK         0.0806 
    114 H114       31.2380   28.3357    0.6110 H         1 UNK         0.0806 
    115 H115       31.2170   32.6655    0.8680 H         1 UNK         0.3010 
    116 H116       32.1561   33.9342    3.1597 H         1 UNK         0.0829 
    117 H117       31.0511   35.1087    1.2780 H         1 UNK         0.0813 
    118 H118       32.6022   35.8559    1.6153 H         1 UNK         0.0813 
    119 H119       32.4326   34.7911    0.2268 H         1 UNK         0.0813 
    120 H120       34.0561   32.1918    0.8114 H         1 UNK         0.3038 
    121 H121       36.6455   33.2715    1.5824 H         1 UNK         0.0769 
    122 H122       36.2400   32.3144   -0.6841 H         1 UNK         0.0811 
    123 H123       37.4972   31.4181    0.1492 H         1 UNK         0.0811 
    124 H124       35.8809   30.7390    0.0256 H         1 UNK         0.0811 
    125 H125       34.4648   31.1298    3.1530 H         1 UNK         0.3204 
    126 H126       36.6119   29.9820    4.8666 H         1 UNK         0.0748 
    127 H127       35.9080   28.2170    3.2742 H         1 UNK         0.0771 
    128 H128       35.3149   27.8396    4.8784 H         1 UNK         0.0771 
    129 H129       34.2143   28.4841    3.6554 H         1 UNK         0.0771 
    130 H130       33.4032   28.9937    5.4488 H         1 UNK         0.2980 
    131 H131       33.3852   30.3606    7.9807 H         1 UNK         0.0545 
    132 H132       32.0880   31.4548    4.9491 H         1 UNK         0.3459 
    133 H133       30.9728   32.5906    5.6793 H         1 UNK         0.3459 
    134 H134       32.7547   28.0758    8.0274 H         1 UNK         0.0616 
    135 H135       31.3253   28.9760    8.4141 H         1 UNK         0.0616 
    136 H136       32.2622   25.9207    6.9751 H         1 UNK         0.0634 
    137 H137       33.1430   26.7354    5.7028 H         1 UNK         0.0634 
@<TRIPOS>BOND
     1    1    2 1    
     2    1   72 1    
     3    1   73 1    
     4    1   74 1    
     5    2    3 2    
     6    2    4 am   BACKBONE|DICT|INTERRES
     7    4    5 1    
     8    4   75 1    
     9    5    6 1    
    10    5   35 1    
    11    5   76 1    
    12    6    7 1    
    13    6   77 1    
    14    6   78 1    
    15    7    8 1    
    16    8    9 1    
    17    8   79 1    
    18    8   80 1    
    19    9   10 ar   
    20    9   14 ar   
    21   10   11 ar   
    22   10   81 1    
    23   11   12 ar   
    24   11   71 1    
    25   12   13 ar   
    26   12   82 1    
    27   13   14 ar   
    28   13   15 1    
    29   14   83 1    
    30   15   16 1    
    31   15   84 1    
    32   15   85 1    
    33   16   17 1    
    34   17   18 1    
    35   17   86 1    
    36   17   87 1    
    37   18   19 1    
    38   18   37 1    
    39   18   88 1    
    40   19   20 am   BACKBONE|DICT|INTERRES
    41   19   89 1    
    42   20   21 2    
    43   20   22 1    
    44   22   23 1    
    45   22   24 1    
    46   22   90 1    
    47   23   91 1    
    48   23   92 1    
    49   23   93 1    
    50   24   25 am   BACKBONE|DICT|INTERRES
    51   24   94 1    
    52   25   26 2    
    53   25   27 1    
    54   27   28 1    
    55   27   29 1    
    56   27   95 1    
    57   28   96 1    
    58   28   97 1    
    59   28   98 1    
    60   29   30 am   BACKBONE|DICT|INTERRES
    61   29   99 1    
    62   30   31 2    
    63   30   32 1    
    64   32   33 1    
    65   32   34 1    
    66   32  100 1    
    67   33  101 1    
    68   33  102 1    
    69   33  103 1    
    70   34   35 am   BACKBONE|DICT|INTERRES
    71   34  104 1    
    72   35   36 2    
    73   37   38 2    
    74   37   39 am   BACKBONE|DICT|INTERRES
    75   39   40 1    
    76   39  105 1    
    77   40   41 1    
    78   40   42 1    
    79   40  106 1    
    80   41  107 1    
    81   41  108 1    
    82   41  109 1    
    83   42   43 2    
    84   42   44 am   BACKBONE|DICT|INTERRES
    85   44   45 1    
    86   44  110 1    
    87   45   46 1    
    88   45   47 1    
    89   45  111 1    
    90   46  112 1    
    91   46  113 1    
    92   46  114 1    
    93   47   48 2    
    94   47   49 am   BACKBONE|DICT|INTERRES
    95   49   50 1    
    96   49  115 1    
    97   50   51 1    
    98   50   52 1    
    99   50  116 1    
   100   51  117 1    
   101   51  118 1    
   102   51  119 1    
   103   52   53 2    
   104   52   54 am   BACKBONE|DICT|INTERRES
   105   54   55 1    
   106   54  120 1    
   107   55   56 1    
   108   55   57 1    
   109   55  121 1    
   110   56  122 1    
   111   56  123 1    
   112   56  124 1    
   113   57   58 2    
   114   57   59 am   BACKBONE|DICT|INTERRES
   115   59   60 1    
   116   59  125 1    
   117   60   61 1    
   118   60   62 1    
   119   60  126 1    
   120   61  127 1    
   121   61  128 1    
   122   61  129 1    
   123   62   63 2    
   124   62   64 am   BACKBONE|DICT|INTERRES
   125   64   65 1    
   126   64  130 1    
   127   65   66 1    
   128   65   69 1    
   129   65  131 1    
   130   66   67 am   BACKBONE|DICT|INTERRES
   131   66   68 2    
   132   67  132 1    
   133   67  133 1    
   134   69   70 1    
   135   69  134 1    
   136   69  135 1    
   137   70   71 1    
   138   71  136 1    
   139   71  137 1    
@<TRIPOS>SUBSTRUCTURE
     1 UNK         1 GROUP             0       ****    0 ROOT    
