@<TRIPOS>MOLECULE
3R136
137   139    1
SMALL
USER_CHARGES


@<TRIPOS>ATOM
      1 CA         27.6454   19.6033    3.1268 C.3       0 UNK        -0.1979 
      2 C          28.0862   20.5748    2.0415 C.2       0 UNK         0.4864 
      3 O          28.3875   20.1481    0.9255 O.2       0 UNK        -0.5359 
      4 N          28.1222   21.8726    2.3600 N.am      1 UNK        -0.4318 
      5 CA         28.5076   22.9505    1.4515 C.3       1 UNK         0.0824 
      6 C6         30.0409   23.0586    1.2178 C.3       12 UNK        -0.0944 
      7 S7         31.0639   23.1863    2.7307 S.3       12 UNK        -0.2672 
      8 C8         32.7304   23.4123    2.0230 C.3       12 UNK         0.0333 
      9 C9         32.9511   24.8517    1.5831 C.ar      12 UNK        -0.0807 
     10 C10        33.5084   25.7814    2.4657 C.ar      12 UNK        -0.0894 
     11 C11        33.6403   27.1225    2.0918 C.ar      12 UNK        -0.0804 
     12 C12        33.1970   27.5358    0.8319 C.ar      12 UNK        -0.0824 
     13 C13        32.6347   26.6134   -0.0542 C.ar      12 UNK        -0.0762 
     14 C14        32.5550   25.2676    0.3096 C.ar      12 UNK        -0.0782 
     15 C15        32.0143   27.0740   -1.3614 C.3       12 UNK         0.0230 
     16 S16        30.2213   27.2363   -1.1216 S.3       12 UNK        -0.2608 
     17 C17        29.6292   27.6314   -2.7996 C.3       12 UNK        -0.0989 
     18 CA         28.1593   28.1368   -2.8237 C.3       5 UNK         0.0716 
     19 N          27.2521   27.2132   -2.1332 N.am      5 UNK        -0.4135 
     20 C          26.3324   26.4340   -2.7161 C.2       4 UNK         0.5031 
     21 O          26.1632   26.3666   -3.9342 O.2       4 UNK        -0.5229 
     22 CA         25.4303   25.5887   -1.7917 C.3       4 UNK         0.0329 
     23 CB         25.9943   24.1645   -1.6652 C.3       4 UNK        -0.2001 
     24 N          25.2396   26.1472   -0.4481 N.am      4 UNK        -0.4303 
     25 C          24.7241   27.3551   -0.1708 C.2       3 UNK         0.5044 
     26 O          24.3022   28.1331   -1.0261 O.2       3 UNK        -0.5152 
     27 CA         24.7551   27.8137    1.2988 C.3       3 UNK         0.0319 
     28 CB         23.4126   27.5144    1.9831 C.3       3 UNK        -0.2001 
     29 N          25.8428   27.2318    2.0919 N.am      3 UNK        -0.4354 
     30 C          27.1495   27.2847    1.7944 C.2       2 UNK         0.4964 
     31 O          27.5946   27.8297    0.7842 O.2       2 UNK        -0.5047 
     32 CA         28.1221   26.5895    2.7636 C.3       2 UNK         0.0288 
     33 CB         27.5675   26.4562    4.1998 C.3       2 UNK        -0.2113 
     34 N          28.5661   25.2830    2.2621 N.am      2 UNK        -0.4145 
     35 C          27.7996   24.2409    1.9033 C.2       1 UNK         0.5006 
     36 O          26.5664   24.2584    1.9160 O.2       1 UNK        -0.5103 
     37 C          27.9980   29.5792   -2.2883 C.2       5 UNK         0.5055 
     38 O          28.8469   30.4249   -2.5761 O.2       5 UNK        -0.5220 
     39 N          26.9123   29.8423   -1.5385 N.am      6 UNK        -0.4450 
     40 CA         26.5661   31.1047   -0.8701 C.3       6 UNK         0.0367 
     41 CB         26.1895   32.1825   -1.9087 C.3       6 UNK        -0.1929 
     42 C          27.6333   31.5878    0.1373 C.2       6 UNK         0.5070 
     43 O          27.8512   32.7937    0.2710 O.2       6 UNK        -0.5237 
     44 N          28.2784   30.6400    0.8253 N.am      7 UNK        -0.4739 
     45 CA         29.3290   30.8665    1.8170 C.3       7 UNK         0.0276 
     46 CB         30.5745   30.0730    1.3724 C.3       7 UNK        -0.1927 
     47 C          28.8572   30.4193    3.2114 C.2       7 UNK         0.5013 
     48 O          27.7036   30.0207    3.3862 O.2       7 UNK        -0.5193 
     49 N          29.7798   30.4611    4.1764 N.am      8 UNK        -0.4253 
     50 CA         29.6890   29.7759    5.4620 C.3       8 UNK         0.0242 
     51 CB         29.7830   30.8012    6.6033 C.3       8 UNK        -0.2000 
     52 C          30.8767   28.8111    5.5006 C.2       8 UNK         0.4948 
     53 O          31.9671   29.2069    5.0833 O.2       8 UNK        -0.5275 
     54 N          30.6605   27.5836    5.9943 N.am      9 UNK        -0.4246 
     55 CA         31.5961   26.4491    5.9107 C.3       9 UNK         0.0261 
     56 CB         30.9301   25.1936    6.4989 C.3       9 UNK        -0.1959 
     57 C          32.9865   26.6600    6.5435 C.2       9 UNK         0.5033 
     58 O          33.9170   25.9338    6.1928 O.2       9 UNK        -0.5390 
     59 N          33.1158   27.6443    7.4419 N.am      10 UNK        -0.4215 
     60 CA         34.3863   28.0692    8.0337 C.3       10 UNK         0.0240 
     61 CB         34.0934   28.9021    9.2931 C.3       10 UNK        -0.1982 
     62 C          35.2910   28.8606    7.0665 C.2       10 UNK         0.4970 
     63 O          36.4884   28.9621    7.3357 O.2       10 UNK        -0.4916 
     64 N          34.7150   29.4267    5.9939 N.am      11 UNK        -0.4279 
     65 CA         35.3740   30.2990    5.0027 C.3       11 UNK         0.1003 
     66 C          35.8567   31.6678    5.5805 C.2       11 UNK         0.5709 
     67 N          35.3516   32.1188    6.7232 N.am      11 UNK        -0.7358 
     68 O          36.6740   32.3548    4.9716 O.2       11 UNK        -0.4999 
     69 C69        36.4779   29.5755    4.1636 C.3       12 UNK        -0.0954 
     70 S70        36.0063   28.1378    3.1242 S.3       12 UNK        -0.2268 
     71 C71        34.1900   28.1372    3.0778 C.3       12 UNK         0.0203 
     72 H72        28.4352   18.8790    3.3245 H         1 UNK         0.0888 
     73 H73        27.4127   20.1137    4.0613 H         1 UNK         0.0888 
     74 H74        26.7566   19.0605    2.8063 H         1 UNK         0.0888 
     75 H75        27.8302   22.1748    3.2794 H         1 UNK         0.3017 
     76 H76        28.0606   22.7269    0.4804 H         1 UNK         0.0873 
     77 H77        30.2410   23.9017    0.5590 H         1 UNK         0.0745 
     78 H78        30.3798   22.1779    0.6700 H         1 UNK         0.0745 
     79 H79        32.8763   22.7276    1.1861 H         1 UNK         0.0705 
     80 H80        33.4711   23.1369    2.7753 H         1 UNK         0.0705 
     81 H81        33.8181   25.4683    3.4540 H         1 UNK         0.1334 
     82 H82        33.2522   28.5803    0.5569 H         1 UNK         0.1417 
     83 H83        32.1240   24.5575   -0.3819 H         1 UNK         0.1562 
     84 H84        32.2209   26.3536   -2.1544 H         1 UNK         0.0748 
     85 H85        32.4332   28.0301   -1.6788 H         1 UNK         0.0748 
     86 H86        29.7085   26.7260   -3.4030 H         1 UNK         0.0940 
     87 H87        30.3023   28.3550   -3.2636 H         1 UNK         0.0940 
     88 H88        27.8669   28.2076   -3.8732 H         1 UNK         0.0703 
     89 H89        27.3491   27.2016   -1.1216 H         1 UNK         0.3081 
     90 H90        24.4463   25.5299   -2.2610 H         1 UNK         0.0719 
     91 H91        26.0737   23.6885   -2.6436 H         1 UNK         0.0809 
     92 H92        26.9911   24.1671   -1.2237 H         1 UNK         0.0809 
     93 H93        25.3537   23.5330   -1.0492 H         1 UNK         0.0809 
     94 H94        25.5684   25.5861    0.3289 H         1 UNK         0.2990 
     95 H95        24.9053   28.8952    1.2971 H         1 UNK         0.0690 
     96 H96        23.3798   27.9274    2.9916 H         1 UNK         0.0788 
     97 H97        23.2253   26.4419    2.0518 H         1 UNK         0.0788 
     98 H98        22.5837   27.9558    1.4277 H         1 UNK         0.0788 
     99 H99        25.5739   26.7272    2.9240 H         1 UNK         0.2993 
    100 H100       29.0085   27.2244    2.8088 H         1 UNK         0.0949 
    101 H101       26.7295   25.7613    4.2618 H         1 UNK         0.0767 
    102 H102       28.3363   26.0955    4.8799 H         1 UNK         0.0767 
    103 H103       27.2285   27.4205    4.5812 H         1 UNK         0.0767 
    104 H104       29.5686   25.1568    2.2037 H         1 UNK         0.3013 
    105 H105       26.2492   29.0901   -1.3973 H         1 UNK         0.3121 
    106 H106       25.6735   30.8955   -0.2786 H         1 UNK         0.0774 
    107 H107       25.4163   31.8253   -2.5887 H         1 UNK         0.0815 
    108 H108       25.8012   33.0777   -1.4214 H         1 UNK         0.0815 
    109 H109       27.0497   32.4855   -2.5065 H         1 UNK         0.0815 
    110 H110       27.9995   29.6690    0.7023 H         1 UNK         0.2987 
    111 H111       29.5840   31.9267    1.8746 H         1 UNK         0.0949 
    112 H112       30.8542   30.3192    0.3476 H         1 UNK         0.0806 
    113 H113       31.4399   30.2899    1.9991 H         1 UNK         0.0806 
    114 H114       30.4013   28.9965    1.4144 H         1 UNK         0.0806 
    115 H115       30.7194   30.7488    3.9354 H         1 UNK         0.3010 
    116 H116       28.7557   29.2155    5.5478 H         1 UNK         0.0829 
    117 H117       29.7214   30.3113    7.5758 H         1 UNK         0.0813 
    118 H118       30.7216   31.3567    6.5745 H         1 UNK         0.0813 
    119 H119       28.9675   31.5227    6.5513 H         1 UNK         0.0813 
    120 H120       29.7455   27.3719    6.3657 H         1 UNK         0.3038 
    121 H121       31.7688   26.2656    4.8482 H         1 UNK         0.0769 
    122 H122       31.6048   24.3369    6.4574 H         1 UNK         0.0811 
    123 H123       30.0370   24.9137    5.9419 H         1 UNK         0.0811 
    124 H124       30.6495   25.3364    7.5430 H         1 UNK         0.0811 
    125 H125       32.2964   28.1867    7.6727 H         1 UNK         0.3204 
    126 H126       34.9387   27.1770    8.3366 H         1 UNK         0.0748 
    127 H127       35.0187   29.2162    9.7785 H         1 UNK         0.0771 
    128 H128       33.5253   29.8036    9.0602 H         1 UNK         0.0771 
    129 H129       33.5263   28.3272   10.0256 H         1 UNK         0.0771 
    130 H130       33.7190   29.2923    5.8419 H         1 UNK         0.2980 
    131 H131       34.5847   30.5980    4.3152 H         1 UNK         0.0545 
    132 H132       34.6670   31.5807    7.2281 H         1 UNK         0.3459 
    133 H133       35.6610   33.0087    7.0809 H         1 UNK         0.3459 
    134 H134       36.9310   30.2843    3.4688 H         1 UNK         0.0616 
    135 H135       37.2922   29.2564    4.8151 H         1 UNK         0.0616 
    136 H136       33.8210   27.8838    4.0669 H         1 UNK         0.0634 
    137 H137       33.8152   29.1307    2.8316 H         1 UNK         0.0634 
@<TRIPOS>BOND
     1    1    2 1    
     2    1   72 1    
     3    1   73 1    
     4    1   74 1    
     5    2    3 2    
     6    2    4 am   BACKBONE|DICT|INTERRES
     7    4    5 1    
     8    4   75 1    
     9    5    6 1    
    10    5   35 1    
    11    5   76 1    
    12    6    7 1    
    13    6   77 1    
    14    6   78 1    
    15    7    8 1    
    16    8    9 1    
    17    8   79 1    
    18    8   80 1    
    19    9   10 ar   
    20    9   14 ar   
    21   10   11 ar   
    22   10   81 1    
    23   11   12 ar   
    24   11   71 1    
    25   12   13 ar   
    26   12   82 1    
    27   13   14 ar   
    28   13   15 1    
    29   14   83 1    
    30   15   16 1    
    31   15   84 1    
    32   15   85 1    
    33   16   17 1    
    34   17   18 1    
    35   17   86 1    
    36   17   87 1    
    37   18   19 1    
    38   18   37 1    
    39   18   88 1    
    40   19   20 am   BACKBONE|DICT|INTERRES
    41   19   89 1    
    42   20   21 2    
    43   20   22 1    
    44   22   23 1    
    45   22   24 1    
    46   22   90 1    
    47   23   91 1    
    48   23   92 1    
    49   23   93 1    
    50   24   25 am   BACKBONE|DICT|INTERRES
    51   24   94 1    
    52   25   26 2    
    53   25   27 1    
    54   27   28 1    
    55   27   29 1    
    56   27   95 1    
    57   28   96 1    
    58   28   97 1    
    59   28   98 1    
    60   29   30 am   BACKBONE|DICT|INTERRES
    61   29   99 1    
    62   30   31 2    
    63   30   32 1    
    64   32   33 1    
    65   32   34 1    
    66   32  100 1    
    67   33  101 1    
    68   33  102 1    
    69   33  103 1    
    70   34   35 am   BACKBONE|DICT|INTERRES
    71   34  104 1    
    72   35   36 2    
    73   37   38 2    
    74   37   39 am   BACKBONE|DICT|INTERRES
    75   39   40 1    
    76   39  105 1    
    77   40   41 1    
    78   40   42 1    
    79   40  106 1    
    80   41  107 1    
    81   41  108 1    
    82   41  109 1    
    83   42   43 2    
    84   42   44 am   BACKBONE|DICT|INTERRES
    85   44   45 1    
    86   44  110 1    
    87   45   46 1    
    88   45   47 1    
    89   45  111 1    
    90   46  112 1    
    91   46  113 1    
    92   46  114 1    
    93   47   48 2    
    94   47   49 am   BACKBONE|DICT|INTERRES
    95   49   50 1    
    96   49  115 1    
    97   50   51 1    
    98   50   52 1    
    99   50  116 1    
   100   51  117 1    
   101   51  118 1    
   102   51  119 1    
   103   52   53 2    
   104   52   54 am   BACKBONE|DICT|INTERRES
   105   54   55 1    
   106   54  120 1    
   107   55   56 1    
   108   55   57 1    
   109   55  121 1    
   110   56  122 1    
   111   56  123 1    
   112   56  124 1    
   113   57   58 2    
   114   57   59 am   BACKBONE|DICT|INTERRES
   115   59   60 1    
   116   59  125 1    
   117   60   61 1    
   118   60   62 1    
   119   60  126 1    
   120   61  127 1    
   121   61  128 1    
   122   61  129 1    
   123   62   63 2    
   124   62   64 am   BACKBONE|DICT|INTERRES
   125   64   65 1    
   126   64  130 1    
   127   65   66 1    
   128   65   69 1    
   129   65  131 1    
   130   66   67 am   BACKBONE|DICT|INTERRES
   131   66   68 2    
   132   67  132 1    
   133   67  133 1    
   134   69   70 1    
   135   69  134 1    
   136   69  135 1    
   137   70   71 1    
   138   71  136 1    
   139   71  137 1    
@<TRIPOS>SUBSTRUCTURE
     1 UNK         1 GROUP             0       ****    0 ROOT    
