@<TRIPOS>MOLECULE
3R136
137   139    1
SMALL
USER_CHARGES


@<TRIPOS>ATOM
      1 CA         29.2904   23.9805   -3.2363 C.3       0 UNK        -0.1979 
      2 C          29.1423   22.8849   -2.1917 C.2       0 UNK         0.4864 
      3 O          28.8193   21.7485   -2.5398 O.2       0 UNK        -0.5359 
      4 N          29.3465   23.2215   -0.9108 N.am      1 UNK        -0.4318 
      5 CA         29.2964   22.3531    0.2757 C.3       1 UNK         0.0824 
      6 C6         30.2890   21.1597    0.1967 C.3       12 UNK        -0.0944 
      7 S7         30.9560   20.6622    1.8204 S.3       12 UNK        -0.2672 
      8 C8         32.5101   21.6159    1.9049 C.3       12 UNK         0.0333 
      9 C9         32.2467   23.0678    2.2766 C.ar      12 UNK        -0.0807 
     10 C10        32.0782   23.4233    3.6187 C.ar      12 UNK        -0.0894 
     11 C11        31.7668   24.7380    3.9786 C.ar      12 UNK        -0.0804 
     12 C12        31.6155   25.6970    2.9700 C.ar      12 UNK        -0.0824 
     13 C13        31.7975   25.3599    1.6264 C.ar      12 UNK        -0.0762 
     14 C14        32.1334   24.0470    1.2846 C.ar      12 UNK        -0.0782 
     15 C15        31.5790   26.4080    0.5483 C.3       12 UNK         0.0230 
     16 S16        29.8815   26.2986   -0.0903 S.3       12 UNK        -0.2608 
     17 C17        29.6198   27.9658   -0.7864 C.3       12 UNK        -0.0989 
     18 CA         28.6959   28.8563    0.0838 C.3       5 UNK         0.0716 
     19 N          27.4140   28.2019    0.3730 N.am      5 UNK        -0.4135 
     20 C          26.3035   28.8107    0.8064 C.2       4 UNK         0.5031 
     21 O          26.2317   30.0276    0.9876 O.2       4 UNK        -0.5229 
     22 CA         25.0825   27.9097    1.1034 C.3       4 UNK         0.0329 
     23 CB         23.8014   28.7240    1.3663 C.3       4 UNK        -0.2001 
     24 N          24.8085   26.9234    0.0499 N.am      4 UNK        -0.4303 
     25 C          25.4981   25.7951   -0.1606 C.2       3 UNK         0.5044 
     26 O          26.4939   25.4759    0.4930 O.2       3 UNK        -0.5152 
     27 CA         25.0437   24.9244   -1.3425 C.3       3 UNK         0.0319 
     28 CB         25.6250   25.4749   -2.6557 C.3       3 UNK        -0.2001 
     29 N          25.4922   23.5425   -1.1759 N.am      3 UNK        -0.4354 
     30 C          24.9043   22.6241   -0.3958 C.2       2 UNK         0.4964 
     31 O          23.8363   22.8026    0.1909 O.2       2 UNK        -0.5047 
     32 CA         25.6390   21.2786   -0.2418 C.3       2 UNK         0.0288 
     33 CB         25.1774   20.2818   -1.3170 C.3       2 UNK        -0.2113 
     34 N          27.0918   21.4443   -0.3268 N.am      2 UNK        -0.4145 
     35 C          27.8593   21.9362    0.6546 C.2       1 UNK         0.5006 
     36 O          27.4568   22.1151    1.8054 O.2       1 UNK        -0.5103 
     37 C          29.4206   29.3503    1.3537 C.2       5 UNK         0.5055 
     38 O          30.2736   30.2324    1.2495 O.2       5 UNK        -0.5220 
     39 N          29.0699   28.7916    2.5229 N.am      6 UNK        -0.4450 
     40 CA         29.6317   29.0958    3.8431 C.3       6 UNK         0.0367 
     41 CB         28.8723   28.2900    4.9082 C.3       6 UNK        -0.1929 
     42 C          29.6389   30.5875    4.2104 C.2       6 UNK         0.5070 
     43 O          30.6035   31.0498    4.8188 O.2       6 UNK        -0.5237 
     44 N          28.5949   31.3169    3.7938 N.am      7 UNK        -0.4739 
     45 CA         28.4545   32.7624    3.9894 C.3       7 UNK         0.0276 
     46 CB         27.0374   33.1884    3.5731 C.3       7 UNK        -0.1927 
     47 C          29.5099   33.5983    3.2408 C.2       7 UNK         0.5013 
     48 O          29.8358   34.6946    3.6975 O.2       7 UNK        -0.5193 
     49 N          30.0214   33.0737    2.1191 N.am      8 UNK        -0.4253 
     50 CA         31.0944   33.6820    1.3335 C.3       8 UNK         0.0242 
     51 CB         30.8229   33.4563   -0.1636 C.3       8 UNK        -0.2000 
     52 C          32.4624   33.1063    1.7267 C.2       8 UNK         0.4948 
     53 O          33.4253   33.8655    1.8395 O.2       8 UNK        -0.5275 
     54 N          32.5284   31.7801    1.9136 N.am      9 UNK        -0.4246 
     55 CA         33.7544   31.0394    2.2148 C.3       9 UNK         0.0261 
     56 CB         33.5072   29.5377    1.9975 C.3       9 UNK        -0.1959 
     57 C          34.3122   31.2897    3.6249 C.2       9 UNK         0.5033 
     58 O          35.5324   31.2474    3.7893 O.2       9 UNK        -0.5390 
     59 N          33.4256   31.5180    4.6084 N.am      10 UNK        -0.4215 
     60 CA         33.7207   31.6750    6.0399 C.3       10 UNK         0.0240 
     61 CB         34.4854   32.9897    6.3055 C.3       10 UNK        -0.1982 
     62 C          34.4160   30.4319    6.6338 C.2       10 UNK         0.4970 
     63 O          35.3998   30.5581    7.3661 O.2       10 UNK        -0.4916 
     64 N          33.8989   29.2511    6.2718 N.am      11 UNK        -0.4279 
     65 CA         34.3819   27.9314    6.7000 C.3       11 UNK         0.1003 
     66 C          34.2505   27.6738    8.2296 C.2       11 UNK         0.5709 
     67 N          35.0408   26.7554    8.7697 N.am      11 UNK        -0.7358 
     68 O          33.4297   28.2721    8.9238 O.2       11 UNK        -0.4999 
     69 C69        33.7361   26.8021    5.8503 C.3       12 UNK        -0.0954 
     70 S70        31.9130   26.7860    5.9316 S.3       12 UNK        -0.2268 
     71 C71        31.5293   25.0676    5.4529 C.3       12 UNK         0.0203 
     72 H72        28.4053   24.0187   -3.8707 H         1 UNK         0.0888 
     73 H73        29.4254   24.9627   -2.7845 H         1 UNK         0.0888 
     74 H74        30.1533   23.7769   -3.8697 H         1 UNK         0.0888 
     75 H75        29.5488   24.1921   -0.6966 H         1 UNK         0.3017 
     76 H76        29.6208   23.0064    1.0861 H         1 UNK         0.0873 
     77 H77        29.8246   20.2916   -0.2748 H         1 UNK         0.0745 
     78 H78        31.1337   21.4138   -0.4452 H         1 UNK         0.0745 
     79 H79        33.0481   21.5462    0.9582 H         1 UNK         0.0705 
     80 H80        33.1593   21.1610    2.6546 H         1 UNK         0.0705 
     81 H81        32.1607   22.6632    4.3839 H         1 UNK         0.1334 
     82 H82        31.3346   26.7071    3.2229 H         1 UNK         0.1417 
     83 H83        32.2559   23.7778    0.2442 H         1 UNK         0.1562 
     84 H84        32.2899   26.2745   -0.2684 H         1 UNK         0.0748 
     85 H85        31.7548   27.4029    0.9571 H         1 UNK         0.0748 
     86 H86        30.5791   28.4543   -0.9708 H         1 UNK         0.0940 
     87 H87        29.1685   27.8399   -1.7718 H         1 UNK         0.0940 
     88 H88        28.4728   29.7531   -0.4983 H         1 UNK         0.0703 
     89 H89        27.3954   27.1885    0.2897 H         1 UNK         0.3081 
     90 H90        25.3168   27.3667    2.0216 H         1 UNK         0.0719 
     91 H91        23.5125   29.3134    0.4952 H         1 UNK         0.0809 
     92 H92        22.9645   28.0759    1.6271 H         1 UNK         0.0809 
     93 H93        23.9394   29.4168    2.1977 H         1 UNK         0.0809 
     94 H94        24.0369   27.1361   -0.5666 H         1 UNK         0.2990 
     95 H95        23.9531   24.9412   -1.3995 H         1 UNK         0.0690 
     96 H96        26.7140   25.5287   -2.6246 H         1 UNK         0.0788 
     97 H97        25.2575   26.4821   -2.8562 H         1 UNK         0.0788 
     98 H98        25.3428   24.8549   -3.5070 H         1 UNK         0.0788 
     99 H99        26.3855   23.3122   -1.5812 H         1 UNK         0.2993 
    100 H100       25.3863   20.8701    0.7393 H         1 UNK         0.0949 
    101 H101       25.4138   20.6324   -2.3226 H         1 UNK         0.0767 
    102 H102       25.6490   19.3082   -1.1820 H         1 UNK         0.0767 
    103 H103       24.0983   20.1284   -1.2689 H         1 UNK         0.0767 
    104 H104       27.5290   21.3297   -1.2390 H         1 UNK         0.3013 
    105 H105       28.3718   28.0635    2.4934 H         1 UNK         0.3121 
    106 H106       30.6715   28.7698    3.8400 H         1 UNK         0.0774 
    107 H107       29.2696   28.4883    5.9049 H         1 UNK         0.0815 
    108 H108       27.8109   28.5402    4.9259 H         1 UNK         0.0815 
    109 H109       28.9630   27.2174    4.7351 H         1 UNK         0.0815 
    110 H110       27.8590   30.8521    3.2800 H         1 UNK         0.2987 
    111 H111       28.5770   32.9678    5.0552 H         1 UNK         0.0949 
    112 H112       26.8439   32.9733    2.5211 H         1 UNK         0.0806 
    113 H113       26.2786   32.6765    4.1653 H         1 UNK         0.0806 
    114 H114       26.8920   34.2597    3.7198 H         1 UNK         0.0806 
    115 H115       29.7318   32.1421    1.8445 H         1 UNK         0.3010 
    116 H116       31.1208   34.7597    1.5098 H         1 UNK         0.0829 
    117 H117       31.6063   33.9078   -0.7737 H         1 UNK         0.0813 
    118 H118       30.7830   32.3960   -0.4165 H         1 UNK         0.0813 
    119 H119       29.8774   33.9071   -0.4654 H         1 UNK         0.0813 
    120 H120       31.6913   31.2240    1.7471 H         1 UNK         0.3038 
    121 H121       34.5178   31.3604    1.5027 H         1 UNK         0.0769 
    122 H122       33.2123   29.3350    0.9680 H         1 UNK         0.0811 
    123 H123       32.7250   29.1569    2.6540 H         1 UNK         0.0811 
    124 H124       34.4101   28.9582    2.1956 H         1 UNK         0.0811 
    125 H125       32.4334   31.4924    4.3836 H         1 UNK         0.3204 
    126 H126       32.7556   31.7509    6.5433 H         1 UNK         0.0748 
    127 H127       34.5982   33.1661    7.3759 H         1 UNK         0.0771 
    128 H128       35.4858   32.9733    5.8718 H         1 UNK         0.0771 
    129 H129       33.9544   33.8463    5.8902 H         1 UNK         0.0771 
    130 H130       33.0657   29.2435    5.7037 H         1 UNK         0.2980 
    131 H131       35.4517   27.9222    6.4824 H         1 UNK         0.0545 
    132 H132       34.9653   26.5651    9.7567 H         1 UNK         0.3459 
    133 H133       35.7127   26.2508    8.2128 H         1 UNK         0.3459 
    134 H134       34.0223   26.9194    4.8039 H         1 UNK         0.0616 
    135 H135       34.1201   25.8269    6.1543 H         1 UNK         0.0616 
    136 H136       32.1037   24.3936    6.0904 H         1 UNK         0.0634 
    137 H137       30.4782   24.8807    5.6756 H         1 UNK         0.0634 
@<TRIPOS>BOND
     1    1    2 1    
     2    1   72 1    
     3    1   73 1    
     4    1   74 1    
     5    2    3 2    
     6    2    4 am   BACKBONE|DICT|INTERRES
     7    4    5 1    
     8    4   75 1    
     9    5    6 1    
    10    5   35 1    
    11    5   76 1    
    12    6    7 1    
    13    6   77 1    
    14    6   78 1    
    15    7    8 1    
    16    8    9 1    
    17    8   79 1    
    18    8   80 1    
    19    9   10 ar   
    20    9   14 ar   
    21   10   11 ar   
    22   10   81 1    
    23   11   12 ar   
    24   11   71 1    
    25   12   13 ar   
    26   12   82 1    
    27   13   14 ar   
    28   13   15 1    
    29   14   83 1    
    30   15   16 1    
    31   15   84 1    
    32   15   85 1    
    33   16   17 1    
    34   17   18 1    
    35   17   86 1    
    36   17   87 1    
    37   18   19 1    
    38   18   37 1    
    39   18   88 1    
    40   19   20 am   BACKBONE|DICT|INTERRES
    41   19   89 1    
    42   20   21 2    
    43   20   22 1    
    44   22   23 1    
    45   22   24 1    
    46   22   90 1    
    47   23   91 1    
    48   23   92 1    
    49   23   93 1    
    50   24   25 am   BACKBONE|DICT|INTERRES
    51   24   94 1    
    52   25   26 2    
    53   25   27 1    
    54   27   28 1    
    55   27   29 1    
    56   27   95 1    
    57   28   96 1    
    58   28   97 1    
    59   28   98 1    
    60   29   30 am   BACKBONE|DICT|INTERRES
    61   29   99 1    
    62   30   31 2    
    63   30   32 1    
    64   32   33 1    
    65   32   34 1    
    66   32  100 1    
    67   33  101 1    
    68   33  102 1    
    69   33  103 1    
    70   34   35 am   BACKBONE|DICT|INTERRES
    71   34  104 1    
    72   35   36 2    
    73   37   38 2    
    74   37   39 am   BACKBONE|DICT|INTERRES
    75   39   40 1    
    76   39  105 1    
    77   40   41 1    
    78   40   42 1    
    79   40  106 1    
    80   41  107 1    
    81   41  108 1    
    82   41  109 1    
    83   42   43 2    
    84   42   44 am   BACKBONE|DICT|INTERRES
    85   44   45 1    
    86   44  110 1    
    87   45   46 1    
    88   45   47 1    
    89   45  111 1    
    90   46  112 1    
    91   46  113 1    
    92   46  114 1    
    93   47   48 2    
    94   47   49 am   BACKBONE|DICT|INTERRES
    95   49   50 1    
    96   49  115 1    
    97   50   51 1    
    98   50   52 1    
    99   50  116 1    
   100   51  117 1    
   101   51  118 1    
   102   51  119 1    
   103   52   53 2    
   104   52   54 am   BACKBONE|DICT|INTERRES
   105   54   55 1    
   106   54  120 1    
   107   55   56 1    
   108   55   57 1    
   109   55  121 1    
   110   56  122 1    
   111   56  123 1    
   112   56  124 1    
   113   57   58 2    
   114   57   59 am   BACKBONE|DICT|INTERRES
   115   59   60 1    
   116   59  125 1    
   117   60   61 1    
   118   60   62 1    
   119   60  126 1    
   120   61  127 1    
   121   61  128 1    
   122   61  129 1    
   123   62   63 2    
   124   62   64 am   BACKBONE|DICT|INTERRES
   125   64   65 1    
   126   64  130 1    
   127   65   66 1    
   128   65   69 1    
   129   65  131 1    
   130   66   67 am   BACKBONE|DICT|INTERRES
   131   66   68 2    
   132   67  132 1    
   133   67  133 1    
   134   69   70 1    
   135   69  134 1    
   136   69  135 1    
   137   70   71 1    
   138   71  136 1    
   139   71  137 1    
@<TRIPOS>SUBSTRUCTURE
     1 UNK         1 GROUP             0       ****    0 ROOT    
