@<TRIPOS>MOLECULE
3R136
137   139    1
SMALL
USER_CHARGES


@<TRIPOS>ATOM
      1 CA         32.6315   20.3860    1.9120 C.3       0 UNK        -0.1979 
      2 C          32.8049   21.7350    1.2294 C.2       0 UNK         0.4864 
      3 O          33.9058   22.2871    1.2328 O.2       0 UNK        -0.5359 
      4 N          31.7275   22.2657    0.6420 N.am      1 UNK        -0.4318 
      5 CA         31.6881   23.5357   -0.0807 C.3       1 UNK         0.0824 
      6 C6         31.6930   24.7660    0.8873 C.3       12 UNK        -0.0944 
      7 S7         30.1091   25.6172    1.2147 S.3       12 UNK        -0.2672 
      8 C8         29.2061   24.3766    2.1885 C.3       12 UNK         0.0333 
      9 C9         29.6589   24.3526    3.6362 C.ar      12 UNK        -0.0807 
     10 C10        30.5107   23.3492    4.0987 C.ar      12 UNK        -0.0894 
     11 C11        30.8940   23.3096    5.4415 C.ar      12 UNK        -0.0804 
     12 C12        30.4108   24.2791    6.3271 C.ar      12 UNK        -0.0824 
     13 C13        29.5490   25.2856    5.8761 C.ar      12 UNK        -0.0762 
     14 C14        29.1902   25.3214    4.5240 C.ar      12 UNK        -0.0782 
     15 C15        29.0195   26.3317    6.8512 C.3       12 UNK         0.0230 
     16 S16        27.2426   26.6858    6.6121 S.3       12 UNK        -0.2608 
     17 C17        27.2776   28.4967    6.4189 C.3       12 UNK        -0.0989 
     18 CA         27.6246   28.9498    4.9765 C.3       5 UNK         0.0716 
     19 N          26.6197   28.5095    3.9981 N.am      5 UNK        -0.4135 
     20 C          26.5683   28.8321    2.6973 C.2       4 UNK         0.5031 
     21 O          27.3165   29.6459    2.1462 O.2       4 UNK        -0.5229 
     22 CA         25.4816   28.1376    1.8597 C.3       4 UNK         0.0329 
     23 CB         24.1642   28.9283    1.9088 C.3       4 UNK        -0.2001 
     24 N          25.9511   28.0641    0.4761 N.am      4 UNK        -0.4303 
     25 C          26.6312   27.0286   -0.0276 C.2       3 UNK         0.5044 
     26 O          26.6505   25.9037    0.4782 O.2       3 UNK        -0.5152 
     27 CA         27.4609   27.3201   -1.2867 C.3       3 UNK         0.0319 
     28 CB         28.4723   28.4558   -1.0244 C.3       3 UNK        -0.2001 
     29 N          28.1778   26.1096   -1.6822 N.am      3 UNK        -0.4354 
     30 C          28.6804   25.8573   -2.8954 C.2       2 UNK         0.4964 
     31 O          28.5833   26.6338   -3.8476 O.2       2 UNK        -0.5047 
     32 CA         29.4374   24.5278   -3.0575 C.3       2 UNK         0.0288 
     33 CB         30.0890   24.3734   -4.4463 C.3       2 UNK        -0.2113 
     34 N          30.4755   24.4137   -2.0292 N.am      2 UNK        -0.4145 
     35 C          30.5207   23.4622   -1.0886 C.2       1 UNK         0.5006 
     36 O          29.6861   22.5557   -0.9895 O.2       1 UNK        -0.5103 
     37 C          27.8755   30.4707    4.9510 C.2       5 UNK         0.5055 
     38 O          27.0511   31.2331    5.4596 O.2       5 UNK        -0.5220 
     39 N          29.0110   30.8621    4.3566 N.am      6 UNK        -0.4450 
     40 CA         29.5242   32.2271    4.2071 C.3       6 UNK         0.0367 
     41 CB         29.7495   32.9006    5.5777 C.3       6 UNK        -0.1929 
     42 C          28.7129   33.1103    3.2390 C.2       6 UNK         0.5070 
     43 O          28.9629   34.3151    3.1806 O.2       6 UNK        -0.5237 
     44 N          27.8002   32.5148    2.4558 N.am      7 UNK        -0.4739 
     45 CA         27.1120   33.1890    1.3490 C.3       7 UNK         0.0276 
     46 CB         25.8272   32.4247    0.9958 C.3       7 UNK        -0.1927 
     47 C          28.0222   33.3149    0.1152 C.2       7 UNK         0.5013 
     48 O          27.8640   34.2554   -0.6639 O.2       7 UNK        -0.5193 
     49 N          28.9683   32.3766   -0.0159 N.am      8 UNK        -0.4253 
     50 CA         30.0328   32.3691   -1.0190 C.3       8 UNK         0.0242 
     51 CB         29.4934   31.9381   -2.3966 C.3       8 UNK        -0.2000 
     52 C          31.2283   31.5019   -0.5914 C.2       8 UNK         0.4948 
     53 O          32.3390   31.7680   -1.0525 O.2       8 UNK        -0.5275 
     54 N          31.0115   30.4996    0.2735 N.am      9 UNK        -0.4246 
     55 CA         32.0401   29.5978    0.7876 C.3       9 UNK         0.0261 
     56 CB         32.3412   28.4992   -0.2529 C.3       9 UNK        -0.1959 
     57 C          31.5710   28.9994    2.1213 C.2       9 UNK         0.5033 
     58 O          30.4253   29.2182    2.5250 O.2       9 UNK        -0.5390 
     59 N          32.4700   28.2602    2.7759 N.am      10 UNK        -0.4215 
     60 CA         32.2639   27.4958    4.0031 C.3       10 UNK         0.0240 
     61 CB         31.9821   28.4306    5.1994 C.3       10 UNK        -0.1982 
     62 C          33.5305   26.6668    4.2552 C.2       10 UNK         0.4970 
     63 O          34.5670   26.9437    3.6435 O.2       10 UNK        -0.4916 
     64 N          33.4438   25.7017    5.1786 N.am      11 UNK        -0.4279 
     65 CA         34.6032   24.9548    5.7000 C.3       11 UNK         0.1003 
     66 C          35.5660   25.7975    6.5904 C.2       11 UNK         0.5709 
     67 N          35.1764   26.9714    7.0766 N.am      11 UNK        -0.7358 
     68 O          36.6943   25.3779    6.8388 O.2       11 UNK        -0.4999 
     69 C69        34.1740   23.6614    6.4410 C.3       12 UNK        -0.0954 
     70 S70        33.5049   22.3969    5.3130 S.3       12 UNK        -0.2268 
     71 C71        31.8054   22.1943    5.9277 C.3       12 UNK         0.0203 
     72 H72        32.9126   20.4582    2.9621 H         1 UNK         0.0888 
     73 H73        31.6016   20.0328    1.8614 H         1 UNK         0.0888 
     74 H74        33.2703   19.6409    1.4387 H         1 UNK         0.0888 
     75 H75        30.8567   21.7502    0.5862 H         1 UNK         0.3017 
     76 H76        32.5974   23.5797   -0.6847 H         1 UNK         0.0873 
     77 H77        32.1496   24.5136    1.8458 H         1 UNK         0.0745 
     78 H78        32.3540   25.5237    0.4663 H         1 UNK         0.0745 
     79 H79        29.3064   23.3919    1.7320 H         1 UNK         0.0705 
     80 H80        28.1423   24.6114    2.1572 H         1 UNK         0.0705 
     81 H81        30.8733   22.5934    3.4168 H         1 UNK         0.1334 
     82 H82        30.6961   24.2415    7.3699 H         1 UNK         0.1417 
     83 H83        28.5326   26.0962    4.1553 H         1 UNK         0.1562 
     84 H84        29.6103   27.2396    6.7330 H         1 UNK         0.0748 
     85 H85        29.1638   26.0039    7.8819 H         1 UNK         0.0748 
     86 H86        27.9860   28.9067    7.1424 H         1 UNK         0.0940 
     87 H87        26.3008   28.8865    6.7129 H         1 UNK         0.0940 
     88 H88        28.5590   28.4622    4.6909 H         1 UNK         0.0703 
     89 H89        25.9388   27.8552    4.3545 H         1 UNK         0.3081 
     90 H90        25.3077   27.1352    2.2576 H         1 UNK         0.0719 
     91 H91        24.2830   29.9439    1.5317 H         1 UNK         0.0809 
     92 H92        23.3907   28.4412    1.3148 H         1 UNK         0.0809 
     93 H93        23.7888   29.0020    2.9303 H         1 UNK         0.0809 
     94 H94        26.0385   28.9538    0.0075 H         1 UNK         0.2990 
     95 H95        26.7762   27.6090   -2.0867 H         1 UNK         0.0690 
     96 H96        29.1459   28.6012   -1.8687 H         1 UNK         0.0788 
     97 H97        29.0817   28.2448   -0.1447 H         1 UNK         0.0788 
     98 H98        27.9674   29.4053   -0.8468 H         1 UNK         0.0788 
     99 H99        28.2581   25.4191   -0.9446 H         1 UNK         0.2993 
    100 H100       28.6933   23.7355   -2.9493 H         1 UNK         0.0949 
    101 H101       30.8258   25.1550   -4.6365 H         1 UNK         0.0767 
    102 H102       30.5905   23.4101   -4.5418 H         1 UNK         0.0767 
    103 H103       29.3409   24.4271   -5.2385 H         1 UNK         0.0767 
    104 H104       31.1649   25.1526   -2.0116 H         1 UNK         0.3013 
    105 H105       29.5378   30.1558    3.8399 H         1 UNK         0.3121 
    106 H106       30.5038   32.1131    3.7403 H         1 UNK         0.0774 
    107 H107       30.2896   33.8416    5.4666 H         1 UNK         0.0815 
    108 H108       28.8085   33.1277    6.0792 H         1 UNK         0.0815 
    109 H109       30.3401   32.2671    6.2393 H         1 UNK         0.0815 
    110 H110       27.6459   31.5131    2.5497 H         1 UNK         0.2987 
    111 H111       26.8338   34.1966    1.6664 H         1 UNK         0.0949 
    112 H112       25.2547   32.9589    0.2365 H         1 UNK         0.0806 
    113 H113       26.0437   31.4327    0.5993 H         1 UNK         0.0806 
    114 H114       25.1826   32.3083    1.8672 H         1 UNK         0.0806 
    115 H115       29.0161   31.6797    0.7113 H         1 UNK         0.3010 
    116 H116       30.4125   33.3895   -1.1073 H         1 UNK         0.0829 
    117 H117       28.7500   32.6415   -2.7714 H         1 UNK         0.0813 
    118 H118       30.2956   31.8971   -3.1347 H         1 UNK         0.0813 
    119 H119       29.0313   30.9533   -2.3631 H         1 UNK         0.0813 
    120 H120       30.0950   30.3079    0.6542 H         1 UNK         0.3038 
    121 H121       32.9486   30.1709    0.9853 H         1 UNK         0.0769 
    122 H122       33.1447   27.8434    0.0826 H         1 UNK         0.0811 
    123 H123       32.6589   28.9266   -1.2040 H         1 UNK         0.0811 
    124 H124       31.4674   27.8763   -0.4451 H         1 UNK         0.0811 
    125 H125       33.3990   28.1346    2.3899 H         1 UNK         0.3204 
    126 H126       31.4263   26.8147    3.8503 H         1 UNK         0.0748 
    127 H127       31.9083   27.8723    6.1329 H         1 UNK         0.0771 
    128 H128       32.7730   29.1713    5.3233 H         1 UNK         0.0771 
    129 H129       31.0422   28.9662    5.0810 H         1 UNK         0.0771 
    130 H130       32.5536   25.5010    5.6097 H         1 UNK         0.2980 
    131 H131       35.2029   24.6523    4.8392 H         1 UNK         0.0545 
    132 H132       34.2552   27.3291    6.8856 H         1 UNK         0.3459 
    133 H133       35.8159   27.5022    7.6466 H         1 UNK         0.3459 
    134 H134       33.4533   23.8913    7.2275 H         1 UNK         0.0616 
    135 H135       35.0268   23.1994    6.9425 H         1 UNK         0.0616 
    136 H136       31.8095   22.1301    7.0170 H         1 UNK         0.0634 
    137 H137       31.4188   21.2392    5.5691 H         1 UNK         0.0634 
@<TRIPOS>BOND
     1    1    2 1    
     2    1   72 1    
     3    1   73 1    
     4    1   74 1    
     5    2    3 2    
     6    2    4 am   BACKBONE|DICT|INTERRES
     7    4    5 1    
     8    4   75 1    
     9    5    6 1    
    10    5   35 1    
    11    5   76 1    
    12    6    7 1    
    13    6   77 1    
    14    6   78 1    
    15    7    8 1    
    16    8    9 1    
    17    8   79 1    
    18    8   80 1    
    19    9   10 ar   
    20    9   14 ar   
    21   10   11 ar   
    22   10   81 1    
    23   11   12 ar   
    24   11   71 1    
    25   12   13 ar   
    26   12   82 1    
    27   13   14 ar   
    28   13   15 1    
    29   14   83 1    
    30   15   16 1    
    31   15   84 1    
    32   15   85 1    
    33   16   17 1    
    34   17   18 1    
    35   17   86 1    
    36   17   87 1    
    37   18   19 1    
    38   18   37 1    
    39   18   88 1    
    40   19   20 am   BACKBONE|DICT|INTERRES
    41   19   89 1    
    42   20   21 2    
    43   20   22 1    
    44   22   23 1    
    45   22   24 1    
    46   22   90 1    
    47   23   91 1    
    48   23   92 1    
    49   23   93 1    
    50   24   25 am   BACKBONE|DICT|INTERRES
    51   24   94 1    
    52   25   26 2    
    53   25   27 1    
    54   27   28 1    
    55   27   29 1    
    56   27   95 1    
    57   28   96 1    
    58   28   97 1    
    59   28   98 1    
    60   29   30 am   BACKBONE|DICT|INTERRES
    61   29   99 1    
    62   30   31 2    
    63   30   32 1    
    64   32   33 1    
    65   32   34 1    
    66   32  100 1    
    67   33  101 1    
    68   33  102 1    
    69   33  103 1    
    70   34   35 am   BACKBONE|DICT|INTERRES
    71   34  104 1    
    72   35   36 2    
    73   37   38 2    
    74   37   39 am   BACKBONE|DICT|INTERRES
    75   39   40 1    
    76   39  105 1    
    77   40   41 1    
    78   40   42 1    
    79   40  106 1    
    80   41  107 1    
    81   41  108 1    
    82   41  109 1    
    83   42   43 2    
    84   42   44 am   BACKBONE|DICT|INTERRES
    85   44   45 1    
    86   44  110 1    
    87   45   46 1    
    88   45   47 1    
    89   45  111 1    
    90   46  112 1    
    91   46  113 1    
    92   46  114 1    
    93   47   48 2    
    94   47   49 am   BACKBONE|DICT|INTERRES
    95   49   50 1    
    96   49  115 1    
    97   50   51 1    
    98   50   52 1    
    99   50  116 1    
   100   51  117 1    
   101   51  118 1    
   102   51  119 1    
   103   52   53 2    
   104   52   54 am   BACKBONE|DICT|INTERRES
   105   54   55 1    
   106   54  120 1    
   107   55   56 1    
   108   55   57 1    
   109   55  121 1    
   110   56  122 1    
   111   56  123 1    
   112   56  124 1    
   113   57   58 2    
   114   57   59 am   BACKBONE|DICT|INTERRES
   115   59   60 1    
   116   59  125 1    
   117   60   61 1    
   118   60   62 1    
   119   60  126 1    
   120   61  127 1    
   121   61  128 1    
   122   61  129 1    
   123   62   63 2    
   124   62   64 am   BACKBONE|DICT|INTERRES
   125   64   65 1    
   126   64  130 1    
   127   65   66 1    
   128   65   69 1    
   129   65  131 1    
   130   66   67 am   BACKBONE|DICT|INTERRES
   131   66   68 2    
   132   67  132 1    
   133   67  133 1    
   134   69   70 1    
   135   69  134 1    
   136   69  135 1    
   137   70   71 1    
   138   71  136 1    
   139   71  137 1    
@<TRIPOS>SUBSTRUCTURE
     1 UNK         1 GROUP             0       ****    0 ROOT    
