@<TRIPOS>MOLECULE
3R136
137   139    1
SMALL
USER_CHARGES


@<TRIPOS>ATOM
      1 CA         30.7277   17.7711    0.9364 C.3       0 UNK        -0.1979 
      2 C          30.4012   19.2499    0.7884 C.2       0 UNK         0.4864 
      3 O          29.2865   19.5817    0.3850 O.2       0 UNK        -0.5359 
      4 N          31.3771   20.1195    1.0923 N.am      1 UNK        -0.4318 
      5 CA         31.3875   21.5954    1.1055 C.3       1 UNK         0.0824 
      6 C6         30.6786   22.2293    2.3334 C.3       12 UNK        -0.0944 
      7 S7         28.8530   22.1385    2.3679 S.3       12 UNK        -0.2672 
      8 C8         28.3840   23.8970    2.2829 C.3       12 UNK         0.0333 
      9 C9         28.2129   24.5459    3.6534 C.ar      12 UNK        -0.0807 
     10 C10        29.2667   24.5741    4.5716 C.ar      12 UNK        -0.0894 
     11 C11        29.1403   25.2493    5.7885 C.ar      12 UNK        -0.0804 
     12 C12        27.9344   25.8822    6.1006 C.ar      12 UNK        -0.0824 
     13 C13        26.8670   25.8549    5.1977 C.ar      12 UNK        -0.0762 
     14 C14        27.0092   25.1779    3.9815 C.ar      12 UNK        -0.0782 
     15 C15        25.5776   26.5991    5.5129 C.3       12 UNK         0.0230 
     16 S16        25.3303   28.0235    4.4016 S.3       12 UNK        -0.2608 
     17 C17        26.7858   29.0681    4.7700 C.3       12 UNK        -0.0989 
     18 CA         28.0048   28.7787    3.8480 C.3       5 UNK         0.0716 
     19 N          27.6165   28.7793    2.4334 N.am      5 UNK        -0.4135 
     20 C          28.3445   28.3329    1.4033 C.2       4 UNK         0.5031 
     21 O          29.5068   27.9280    1.4994 O.2       4 UNK        -0.5229 
     22 CA         27.6232   28.3419    0.0387 C.3       4 UNK         0.0329 
     23 CB         27.2620   29.7688   -0.4077 C.3       4 UNK        -0.2001 
     24 N          28.4125   27.7105   -1.0194 N.am      4 UNK        -0.4303 
     25 C          28.5917   26.3918   -1.1560 C.2       3 UNK         0.5044 
     26 O          28.0339   25.5546   -0.4442 O.2       3 UNK        -0.5152 
     27 CA         29.5351   25.9531   -2.2934 C.3       3 UNK         0.0319 
     28 CB         30.8312   26.7875   -2.3404 C.3       3 UNK        -0.2001 
     29 N          29.8949   24.5402   -2.1810 N.am      3 UNK        -0.4354 
     30 C          29.1764   23.5092   -2.6348 C.2       2 UNK         0.4964 
     31 O          28.1153   23.6309   -3.2492 O.2       2 UNK        -0.5047 
     32 CA         29.7513   22.0987   -2.4059 C.3       2 UNK         0.0288 
     33 CB         30.9109   21.8161   -3.3813 C.3       2 UNK        -0.2113 
     34 N          30.1405   21.7702   -1.0262 N.am      2 UNK        -0.4145 
     35 C          31.0776   22.3089   -0.2344 C.2       1 UNK         0.5006 
     36 O          31.7342   23.3086   -0.5358 O.2       1 UNK        -0.5103 
     37 C          29.1873   29.7199    4.1685 C.2       5 UNK         0.5055 
     38 O          29.6500   30.4628    3.2992 O.2       5 UNK        -0.5220 
     39 N          29.6522   29.6748    5.4271 N.am      6 UNK        -0.4450 
     40 CA         30.8101   30.3966    5.9751 C.3       6 UNK         0.0367 
     41 CB         30.8402   30.2308    7.5043 C.3       6 UNK        -0.1929 
     42 C          30.8850   31.8896    5.6141 C.2       6 UNK         0.5070 
     43 O          31.9306   32.3560    5.1641 O.2       6 UNK        -0.5237 
     44 N          29.7663   32.6018    5.7901 N.am      7 UNK        -0.4739 
     45 CA         29.6520   34.0351    5.5074 C.3       7 UNK         0.0276 
     46 CB         28.4542   34.5966    6.2920 C.3       7 UNK        -0.1927 
     47 C          29.5147   34.3693    4.0098 C.2       7 UNK         0.5013 
     48 O          29.6609   35.5382    3.6495 O.2       7 UNK        -0.5193 
     49 N          29.2046   33.3675    3.1766 N.am      8 UNK        -0.4253 
     50 CA         28.8991   33.5313    1.7569 C.3       8 UNK         0.0242 
     51 CB         27.6148   32.7537    1.4317 C.3       8 UNK        -0.2000 
     52 C          30.0573   33.0818    0.8558 C.2       8 UNK         0.4948 
     53 O          30.4115   33.8206   -0.0640 O.2       8 UNK        -0.5275 
     54 N          30.6193   31.8921    1.1131 N.am      9 UNK        -0.4246 
     55 CA         31.6612   31.2809    0.2796 C.3       9 UNK         0.0261 
     56 CB         31.0150   30.4608   -0.8541 C.3       9 UNK        -0.1959 
     57 C          32.6760   30.4524    1.0850 C.2       9 UNK         0.5033 
     58 O          33.3472   29.6028    0.4975 O.2       9 UNK        -0.5390 
     59 N          32.8005   30.7186    2.3950 N.am      10 UNK        -0.4215 
     60 CA         33.7626   30.0995    3.3191 C.3       10 UNK         0.0240 
     61 CB         35.2069   30.5192    2.9652 C.3       10 UNK        -0.1982 
     62 C          33.5969   28.5714    3.4641 C.2       10 UNK         0.4970 
     63 O          34.5983   27.8629    3.5788 O.2       10 UNK        -0.4916 
     64 N          32.3392   28.1062    3.4802 N.am      11 UNK        -0.4279 
     65 CA         31.9262   26.6984    3.5978 C.3       11 UNK         0.1003 
     66 C          32.3379   25.8683    2.3528 C.2       11 UNK         0.5709 
     67 N          31.6140   26.0132    1.2538 N.am      11 UNK        -0.7358 
     68 O          33.2749   25.0736    2.3834 O.2       11 UNK        -0.4999 
     69 C69        32.3529   26.0266    4.9375 C.3       12 UNK        -0.0954 
     70 S70        31.4423   26.6815    6.3733 S.3       12 UNK        -0.2268 
     71 C71        30.3101   25.3068    6.7601 C.3       12 UNK         0.0203 
     72 H72        31.7432   17.6091    1.2973 H         1 UNK         0.0888 
     73 H73        30.0398   17.3054    1.6417 H         1 UNK         0.0888 
     74 H74        30.6244   17.2664   -0.0239 H         1 UNK         0.0888 
     75 H75        32.2623   19.7200    1.3723 H         1 UNK         0.3017 
     76 H76        32.4465   21.8124    1.2590 H         1 UNK         0.0873 
     77 H77        31.0450   21.7554    3.2452 H         1 UNK         0.0745 
     78 H78        30.9888   23.2705    2.4113 H         1 UNK         0.0745 
     79 H79        27.4540   23.9633    1.7165 H         1 UNK         0.0705 
     80 H80        29.1238   24.4562    1.7090 H         1 UNK         0.0705 
     81 H81        30.1973   24.0851    4.3335 H         1 UNK         0.1334 
     82 H82        27.8348   26.4118    7.0384 H         1 UNK         0.1417 
     83 H83        26.1899   25.1793    3.2752 H         1 UNK         0.1562 
     84 H84        25.5643   26.9434    6.5483 H         1 UNK         0.0748 
     85 H85        24.7339   25.9157    5.4063 H         1 UNK         0.0748 
     86 H86        27.0421   28.9372    5.8225 H         1 UNK         0.0940 
     87 H87        26.4745   30.1096    4.6661 H         1 UNK         0.0940 
     88 H88        28.3737   27.7751    4.0572 H         1 UNK         0.0703 
     89 H89        26.6729   29.0872    2.2537 H         1 UNK         0.3081 
     90 H90        26.6965   27.7749    0.1520 H         1 UNK         0.0719 
     91 H91        28.1333   30.4230   -0.4231 H         1 UNK         0.0809 
     92 H92        26.8233   29.7742   -1.4058 H         1 UNK         0.0809 
     93 H93        26.5240   30.2152    0.2587 H         1 UNK         0.0809 
     94 H94        28.9195   28.3296   -1.6329 H         1 UNK         0.2990 
     95 H95        29.0017   26.1039   -3.2342 H         1 UNK         0.0690 
     96 H96        31.5252   26.3970   -3.0851 H         1 UNK         0.0788 
     97 H97        31.3466   26.7957   -1.3802 H         1 UNK         0.0788 
     98 H98        30.6318   27.8239   -2.6135 H         1 UNK         0.0788 
     99 H99        30.7186   24.3118   -1.6288 H         1 UNK         0.2993 
    100 H100       28.9483   21.4005   -2.6481 H         1 UNK         0.0949 
    101 H101       31.7724   22.4560   -3.1871 H         1 UNK         0.0767 
    102 H102       31.2417   20.7798   -3.3120 H         1 UNK         0.0767 
    103 H103       30.6038   21.9896   -4.4136 H         1 UNK         0.0767 
    104 H104       29.6511   20.9715   -0.6197 H         1 UNK         0.3013 
    105 H105       29.2196   29.0219    6.0640 H         1 UNK         0.3121 
    106 H106       31.7014   29.9153    5.5750 H         1 UNK         0.0774 
    107 H107       31.7030   30.7412    7.9351 H         1 UNK         0.0815 
    108 H108       29.9488   30.6458    7.9760 H         1 UNK         0.0815 
    109 H109       30.9130   29.1842    7.7967 H         1 UNK         0.0815 
    110 H110       28.9467   32.1372    6.1538 H         1 UNK         0.2987 
    111 H111       30.5564   34.5331    5.8650 H         1 UNK         0.0949 
    112 H112       28.3565   35.6726    6.1402 H         1 UNK         0.0806 
    113 H113       27.5153   34.1377    5.9795 H         1 UNK         0.0806 
    114 H114       28.5692   34.4334    7.3637 H         1 UNK         0.0806 
    115 H115       29.1835   32.4215    3.5396 H         1 UNK         0.3010 
    116 H116       28.7062   34.5831    1.5334 H         1 UNK         0.0829 
    117 H117       26.7580   33.1728    1.9595 H         1 UNK         0.0813 
    118 H118       27.3887   32.7937    0.3652 H         1 UNK         0.0813 
    119 H119       27.6988   31.7060    1.7180 H         1 UNK         0.0813 
    120 H120       30.2570   31.3260    1.8816 H         1 UNK         0.3038 
    121 H121       32.2532   32.0747   -0.1807 H         1 UNK         0.0769 
    122 H122       31.7679   30.0908   -1.5511 H         1 UNK         0.0811 
    123 H123       30.3110   31.0588   -1.4325 H         1 UNK         0.0811 
    124 H124       30.4876   29.5946   -0.4576 H         1 UNK         0.0811 
    125 H125       32.2140   31.4389    2.7962 H         1 UNK         0.3204 
    126 H126       33.5548   30.5128    4.3047 H         1 UNK         0.0748 
    127 H127       35.9104   30.1849    3.7287 H         1 UNK         0.0771 
    128 H128       35.5328   30.0935    2.0156 H         1 UNK         0.0771 
    129 H129       35.2990   31.6031    2.8966 H         1 UNK         0.0771 
    130 H130       31.5906   28.7591    3.2980 H         1 UNK         0.2980 
    131 H131       30.8359   26.7180    3.5889 H         1 UNK         0.0545 
    132 H132       31.8366   25.4502    0.4475 H         1 UNK         0.3459 
    133 H133       30.8433   26.6786    1.2342 H         1 UNK         0.3459 
    134 H134       32.2066   24.9471    4.8961 H         1 UNK         0.0616 
    135 H135       33.4193   26.1566    5.1213 H         1 UNK         0.0616 
    136 H136       30.8549   24.3615    6.7592 H         1 UNK         0.0634 
    137 H137       29.9404   25.4394    7.7780 H         1 UNK         0.0634 
@<TRIPOS>BOND
     1    1    2 1    
     2    1   72 1    
     3    1   73 1    
     4    1   74 1    
     5    2    3 2    
     6    2    4 am   BACKBONE|DICT|INTERRES
     7    4    5 1    
     8    4   75 1    
     9    5    6 1    
    10    5   35 1    
    11    5   76 1    
    12    6    7 1    
    13    6   77 1    
    14    6   78 1    
    15    7    8 1    
    16    8    9 1    
    17    8   79 1    
    18    8   80 1    
    19    9   10 ar   
    20    9   14 ar   
    21   10   11 ar   
    22   10   81 1    
    23   11   12 ar   
    24   11   71 1    
    25   12   13 ar   
    26   12   82 1    
    27   13   14 ar   
    28   13   15 1    
    29   14   83 1    
    30   15   16 1    
    31   15   84 1    
    32   15   85 1    
    33   16   17 1    
    34   17   18 1    
    35   17   86 1    
    36   17   87 1    
    37   18   19 1    
    38   18   37 1    
    39   18   88 1    
    40   19   20 am   BACKBONE|DICT|INTERRES
    41   19   89 1    
    42   20   21 2    
    43   20   22 1    
    44   22   23 1    
    45   22   24 1    
    46   22   90 1    
    47   23   91 1    
    48   23   92 1    
    49   23   93 1    
    50   24   25 am   BACKBONE|DICT|INTERRES
    51   24   94 1    
    52   25   26 2    
    53   25   27 1    
    54   27   28 1    
    55   27   29 1    
    56   27   95 1    
    57   28   96 1    
    58   28   97 1    
    59   28   98 1    
    60   29   30 am   BACKBONE|DICT|INTERRES
    61   29   99 1    
    62   30   31 2    
    63   30   32 1    
    64   32   33 1    
    65   32   34 1    
    66   32  100 1    
    67   33  101 1    
    68   33  102 1    
    69   33  103 1    
    70   34   35 am   BACKBONE|DICT|INTERRES
    71   34  104 1    
    72   35   36 2    
    73   37   38 2    
    74   37   39 am   BACKBONE|DICT|INTERRES
    75   39   40 1    
    76   39  105 1    
    77   40   41 1    
    78   40   42 1    
    79   40  106 1    
    80   41  107 1    
    81   41  108 1    
    82   41  109 1    
    83   42   43 2    
    84   42   44 am   BACKBONE|DICT|INTERRES
    85   44   45 1    
    86   44  110 1    
    87   45   46 1    
    88   45   47 1    
    89   45  111 1    
    90   46  112 1    
    91   46  113 1    
    92   46  114 1    
    93   47   48 2    
    94   47   49 am   BACKBONE|DICT|INTERRES
    95   49   50 1    
    96   49  115 1    
    97   50   51 1    
    98   50   52 1    
    99   50  116 1    
   100   51  117 1    
   101   51  118 1    
   102   51  119 1    
   103   52   53 2    
   104   52   54 am   BACKBONE|DICT|INTERRES
   105   54   55 1    
   106   54  120 1    
   107   55   56 1    
   108   55   57 1    
   109   55  121 1    
   110   56  122 1    
   111   56  123 1    
   112   56  124 1    
   113   57   58 2    
   114   57   59 am   BACKBONE|DICT|INTERRES
   115   59   60 1    
   116   59  125 1    
   117   60   61 1    
   118   60   62 1    
   119   60  126 1    
   120   61  127 1    
   121   61  128 1    
   122   61  129 1    
   123   62   63 2    
   124   62   64 am   BACKBONE|DICT|INTERRES
   125   64   65 1    
   126   64  130 1    
   127   65   66 1    
   128   65   69 1    
   129   65  131 1    
   130   66   67 am   BACKBONE|DICT|INTERRES
   131   66   68 2    
   132   67  132 1    
   133   67  133 1    
   134   69   70 1    
   135   69  134 1    
   136   69  135 1    
   137   70   71 1    
   138   71  136 1    
   139   71  137 1    
@<TRIPOS>SUBSTRUCTURE
     1 UNK         1 GROUP             0       ****    0 ROOT    
