@<TRIPOS>MOLECULE
3R136
137   139    1
SMALL
USER_CHARGES


@<TRIPOS>ATOM
      1 CA         28.8782   24.4166   -2.1986 C.3       0 UNK        -0.1979 
      2 C          28.6647   24.3458   -0.6952 C.2       0 UNK         0.4864 
      3 O          28.3632   25.3662   -0.0740 O.2       0 UNK        -0.5359 
      4 N          28.8134   23.1506   -0.1077 N.am      1 UNK        -0.4318 
      5 CA         28.7717   22.8845    1.3399 C.3       1 UNK         0.0824 
      6 C6         29.1361   21.4038    1.6390 C.3       12 UNK        -0.0944 
      7 S7         30.1310   21.1982    3.1561 S.3       12 UNK        -0.2672 
      8 C8         31.7985   20.8778    2.4874 C.3       12 UNK         0.0333 
      9 C9         32.5596   22.1683    2.2140 C.ar      12 UNK        -0.0807 
     10 C10        33.5677   22.5876    3.0873 C.ar      12 UNK        -0.0894 
     11 C11        34.2693   23.7719    2.8445 C.ar      12 UNK        -0.0804 
     12 C12        33.9491   24.5460    1.7255 C.ar      12 UNK        -0.0824 
     13 C13        32.9343   24.1454    0.8492 C.ar      12 UNK        -0.0762 
     14 C14        32.2639   22.9421    1.0879 C.ar      12 UNK        -0.0782 
     15 C15        32.5620   24.9873   -0.3683 C.3       12 UNK         0.0230 
     16 S16        32.4317   26.7738   -0.0210 S.3       12 UNK        -0.2608 
     17 C17        31.1671   26.8491    1.2954 C.3       12 UNK        -0.0989 
     18 CA         30.2516   28.0838    1.1129 C.3       5 UNK         0.0716 
     19 N          29.4026   27.9867   -0.0794 N.am      5 UNK        -0.4135 
     20 C          28.9914   29.0439   -0.7918 C.2       4 UNK         0.5031 
     21 O          29.3101   30.2055   -0.5393 O.2       4 UNK        -0.5229 
     22 CA         28.0628   28.7807   -1.9925 C.3       4 UNK         0.0329 
     23 CB         28.8929   28.4662   -3.2477 C.3       4 UNK        -0.2001 
     24 N          27.0513   27.7337   -1.8063 N.am      4 UNK        -0.4303 
     25 C          26.1536   27.6755   -0.8128 C.2       3 UNK         0.5044 
     26 O          26.1484   28.4420    0.1479 O.2       3 UNK        -0.5152 
     27 CA         25.0750   26.5876   -0.8921 C.3       3 UNK         0.0319 
     28 CB         24.8619   25.9949   -2.3013 C.3       3 UNK        -0.2001 
     29 N          25.3951   25.5243    0.0568 N.am      3 UNK        -0.4354 
     30 C          24.4890   24.8136    0.7442 C.2       2 UNK         0.4964 
     31 O          23.2750   25.0079    0.6622 O.2       2 UNK        -0.5047 
     32 CA         25.0076   23.6884    1.6620 C.3       2 UNK         0.0288 
     33 CB         24.0632   22.4710    1.6745 C.3       2 UNK        -0.2113 
     34 N          26.3428   23.2441    1.2583 N.am      2 UNK        -0.4145 
     35 C          27.4441   23.2914    2.0192 C.2       1 UNK         0.5006 
     36 O          27.4510   23.6580    3.1947 O.2       1 UNK        -0.5103 
     37 C          29.4083   28.3678    2.3712 C.2       5 UNK         0.5055 
     38 O          29.8630   29.0996    3.2525 O.2       5 UNK        -0.5220 
     39 N          28.1811   27.8273    2.4287 N.am      6 UNK        -0.4450 
     40 CA         27.2193   28.0842    3.5071 C.3       6 UNK         0.0367 
     41 CB         26.0223   27.1301    3.3814 C.3       6 UNK        -0.1929 
     42 C          26.7448   29.5477    3.5472 C.2       6 UNK         0.5070 
     43 O          26.5138   30.0816    4.6327 O.2       6 UNK        -0.5237 
     44 N          26.6492   30.1853    2.3732 N.am      7 UNK        -0.4739 
     45 CA         26.3112   31.5954    2.1612 C.3       7 UNK         0.0276 
     46 CB         25.8990   31.7794    0.6884 C.3       7 UNK        -0.1927 
     47 C          27.4347   32.5681    2.5873 C.2       7 UNK         0.5013 
     48 O          27.8518   33.4134    1.7935 O.2       7 UNK        -0.5193 
     49 N          27.8823   32.4409    3.8443 N.am      8 UNK        -0.4253 
     50 CA         28.8553   33.2832    4.5497 C.3       8 UNK         0.0242 
     51 CB         28.2633   34.6862    4.8065 C.3       8 UNK        -0.2000 
     52 C          30.2491   33.3334    3.8900 C.2       8 UNK         0.4948 
     53 O          30.8766   34.3944    3.8694 O.2       8 UNK        -0.5275 
     54 N          30.7282   32.1856    3.3950 N.am      9 UNK        -0.4246 
     55 CA         32.0729   32.0114    2.8437 C.3       9 UNK         0.0261 
     56 CB         32.0002   31.9407    1.3077 C.3       9 UNK        -0.1959 
     57 C          32.7005   30.7721    3.4951 C.2       9 UNK         0.5033 
     58 O          33.0145   29.7964    2.8110 O.2       9 UNK        -0.5390 
     59 N          32.8135   30.8321    4.8297 N.am      10 UNK        -0.4215 
     60 CA         33.2730   29.7555    5.7086 C.3       10 UNK         0.0240 
     61 CB         33.1341   30.2161    7.1697 C.3       10 UNK        -0.1982 
     62 C          34.7127   29.2914    5.4262 C.2       10 UNK         0.4970 
     63 O          35.5358   30.0692    4.9366 O.2       10 UNK        -0.4916 
     64 N          34.9713   28.0258    5.7691 N.am      11 UNK        -0.4279 
     65 CA         36.2356   27.3041    5.5724 C.3       11 UNK         0.1003 
     66 C          37.4460   27.9646    6.2880 C.2       11 UNK         0.5709 
     67 N          38.6223   27.9339    5.6763 N.am      11 UNK        -0.7358 
     68 O          37.3365   28.4599    7.4085 O.2       11 UNK        -0.4999 
     69 C69        36.1002   25.8168    5.9989 C.3       12 UNK        -0.0954 
     70 S70        34.6400   24.9976    5.2727 S.3       12 UNK        -0.2268 
     71 C71        35.3626   24.2235    3.7988 C.3       12 UNK         0.0203 
     72 H72        29.1894   23.4572   -2.6114 H         1 UNK         0.0888 
     73 H73        27.9607   24.7180   -2.6998 H         1 UNK         0.0888 
     74 H74        29.6507   25.1486   -2.4309 H         1 UNK         0.0888 
     75 H75        29.0189   22.3500   -0.6886 H         1 UNK         0.3017 
     76 H76        29.5378   23.5291    1.7764 H         1 UNK         0.0873 
     77 H77        28.2430   20.7808    1.7230 H         1 UNK         0.0745 
     78 H78        29.6953   20.9687    0.8100 H         1 UNK         0.0745 
     79 H79        32.3435   20.2709    3.2120 H         1 UNK         0.0705 
     80 H80        31.7411   20.2739    1.5809 H         1 UNK         0.0705 
     81 H81        33.8055   21.9970    3.9617 H         1 UNK         0.1334 
     82 H82        34.4827   25.4688    1.5423 H         1 UNK         0.1417 
     83 H83        31.4999   22.6102    0.4008 H         1 UNK         0.1562 
     84 H84        31.6183   24.6508   -0.7967 H         1 UNK         0.0748 
     85 H85        33.3190   24.8372   -1.1390 H         1 UNK         0.0748 
     86 H86        31.6969   26.9005    2.2492 H         1 UNK         0.0940 
     87 H87        30.5848   25.9268    1.3172 H         1 UNK         0.0940 
     88 H88        30.9128   28.9432    0.9957 H         1 UNK         0.0703 
     89 H89        29.0591   27.0584   -0.3134 H         1 UNK         0.3081 
     90 H90        27.5169   29.7084   -2.1763 H         1 UNK         0.0719 
     91 H91        29.6304   29.2486   -3.4333 H         1 UNK         0.0809 
     92 H92        29.4360   27.5261   -3.1479 H         1 UNK         0.0809 
     93 H93        28.2645   28.4008   -4.1361 H         1 UNK         0.0809 
     94 H94        26.9745   27.0526   -2.5463 H         1 UNK         0.2990 
     95 H95        24.1455   27.0757   -0.5907 H         1 UNK         0.0690 
     96 H96        24.6870   26.7790   -3.0394 H         1 UNK         0.0788 
     97 H97        23.9867   25.3450   -2.3181 H         1 UNK         0.0788 
     98 H98        25.7120   25.4008   -2.6342 H         1 UNK         0.0788 
     99 H99        26.3855   25.3562    0.2072 H         1 UNK         0.2993 
    100 H100       25.0333   24.1053    2.6707 H         1 UNK         0.0949 
    101 H101       24.4392   21.6867    2.3318 H         1 UNK         0.0767 
    102 H102       23.0711   22.7440    2.0369 H         1 UNK         0.0767 
    103 H103       23.9428   22.0444    0.6780 H         1 UNK         0.0767 
    104 H104       26.4390   22.9329    0.3017 H         1 UNK         0.3013 
    105 H105       27.8593   27.2737    1.6472 H         1 UNK         0.3121 
    106 H106       27.7205   27.8758    4.4548 H         1 UNK         0.0774 
    107 H107       25.3247   27.2725    4.2077 H         1 UNK         0.0815 
    108 H108       25.4668   27.2933    2.4580 H         1 UNK         0.0815 
    109 H109       26.3433   26.0901    3.4068 H         1 UNK         0.0815 
    110 H110       26.7870   29.6309    1.5321 H         1 UNK         0.2987 
    111 H111       25.4426   31.8302    2.7800 H         1 UNK         0.0949 
    112 H112       25.5828   32.8047    0.4918 H         1 UNK         0.0806 
    113 H113       26.7241   31.5534    0.0113 H         1 UNK         0.0806 
    114 H114       25.0647   31.1286    0.4256 H         1 UNK         0.0806 
    115 H115       27.4758   31.6808    4.3862 H         1 UNK         0.3010 
    116 H116       29.0070   32.8126    5.5223 H         1 UNK         0.0829 
    117 H117       28.1246   35.2415    3.8782 H         1 UNK         0.0813 
    118 H118       27.2976   34.6244    5.3081 H         1 UNK         0.0813 
    119 H119       28.9195   35.2790    5.4451 H         1 UNK         0.0813 
    120 H120       30.1731   31.3390    3.4658 H         1 UNK         0.3038 
    121 H121       32.7143   32.8548    3.1086 H         1 UNK         0.0769 
    122 H122       31.3277   31.1536    0.9728 H         1 UNK         0.0811 
    123 H123       32.9818   31.7447    0.8746 H         1 UNK         0.0811 
    124 H124       31.6402   32.8804    0.8889 H         1 UNK         0.0811 
    125 H125       32.5421   31.6911    5.2846 H         1 UNK         0.3204 
    126 H126       32.6043   28.9073    5.5452 H         1 UNK         0.0748 
    127 H127       33.4323   29.4273    7.8619 H         1 UNK         0.0771 
    128 H128       33.7604   31.0845    7.3789 H         1 UNK         0.0771 
    129 H129       32.1031   30.4786    7.4086 H         1 UNK         0.0771 
    130 H130       34.2329   27.4764    6.1824 H         1 UNK         0.2980 
    131 H131       36.4328   27.3274    4.4989 H         1 UNK         0.0545 
    132 H132       39.4221   28.3428    6.1338 H         1 UNK         0.3459 
    133 H133       38.7266   27.5179    4.7639 H         1 UNK         0.3459 
    134 H134       36.0096   25.7405    7.0842 H         1 UNK         0.0616 
    135 H135       36.9970   25.2554    5.7300 H         1 UNK         0.0616 
    136 H136       36.0285   24.9324    3.3041 H         1 UNK         0.0634 
    137 H137       35.9769   23.3728    4.0977 H         1 UNK         0.0634 
@<TRIPOS>BOND
     1    1    2 1    
     2    1   72 1    
     3    1   73 1    
     4    1   74 1    
     5    2    3 2    
     6    2    4 am   BACKBONE|DICT|INTERRES
     7    4    5 1    
     8    4   75 1    
     9    5    6 1    
    10    5   35 1    
    11    5   76 1    
    12    6    7 1    
    13    6   77 1    
    14    6   78 1    
    15    7    8 1    
    16    8    9 1    
    17    8   79 1    
    18    8   80 1    
    19    9   10 ar   
    20    9   14 ar   
    21   10   11 ar   
    22   10   81 1    
    23   11   12 ar   
    24   11   71 1    
    25   12   13 ar   
    26   12   82 1    
    27   13   14 ar   
    28   13   15 1    
    29   14   83 1    
    30   15   16 1    
    31   15   84 1    
    32   15   85 1    
    33   16   17 1    
    34   17   18 1    
    35   17   86 1    
    36   17   87 1    
    37   18   19 1    
    38   18   37 1    
    39   18   88 1    
    40   19   20 am   BACKBONE|DICT|INTERRES
    41   19   89 1    
    42   20   21 2    
    43   20   22 1    
    44   22   23 1    
    45   22   24 1    
    46   22   90 1    
    47   23   91 1    
    48   23   92 1    
    49   23   93 1    
    50   24   25 am   BACKBONE|DICT|INTERRES
    51   24   94 1    
    52   25   26 2    
    53   25   27 1    
    54   27   28 1    
    55   27   29 1    
    56   27   95 1    
    57   28   96 1    
    58   28   97 1    
    59   28   98 1    
    60   29   30 am   BACKBONE|DICT|INTERRES
    61   29   99 1    
    62   30   31 2    
    63   30   32 1    
    64   32   33 1    
    65   32   34 1    
    66   32  100 1    
    67   33  101 1    
    68   33  102 1    
    69   33  103 1    
    70   34   35 am   BACKBONE|DICT|INTERRES
    71   34  104 1    
    72   35   36 2    
    73   37   38 2    
    74   37   39 am   BACKBONE|DICT|INTERRES
    75   39   40 1    
    76   39  105 1    
    77   40   41 1    
    78   40   42 1    
    79   40  106 1    
    80   41  107 1    
    81   41  108 1    
    82   41  109 1    
    83   42   43 2    
    84   42   44 am   BACKBONE|DICT|INTERRES
    85   44   45 1    
    86   44  110 1    
    87   45   46 1    
    88   45   47 1    
    89   45  111 1    
    90   46  112 1    
    91   46  113 1    
    92   46  114 1    
    93   47   48 2    
    94   47   49 am   BACKBONE|DICT|INTERRES
    95   49   50 1    
    96   49  115 1    
    97   50   51 1    
    98   50   52 1    
    99   50  116 1    
   100   51  117 1    
   101   51  118 1    
   102   51  119 1    
   103   52   53 2    
   104   52   54 am   BACKBONE|DICT|INTERRES
   105   54   55 1    
   106   54  120 1    
   107   55   56 1    
   108   55   57 1    
   109   55  121 1    
   110   56  122 1    
   111   56  123 1    
   112   56  124 1    
   113   57   58 2    
   114   57   59 am   BACKBONE|DICT|INTERRES
   115   59   60 1    
   116   59  125 1    
   117   60   61 1    
   118   60   62 1    
   119   60  126 1    
   120   61  127 1    
   121   61  128 1    
   122   61  129 1    
   123   62   63 2    
   124   62   64 am   BACKBONE|DICT|INTERRES
   125   64   65 1    
   126   64  130 1    
   127   65   66 1    
   128   65   69 1    
   129   65  131 1    
   130   66   67 am   BACKBONE|DICT|INTERRES
   131   66   68 2    
   132   67  132 1    
   133   67  133 1    
   134   69   70 1    
   135   69  134 1    
   136   69  135 1    
   137   70   71 1    
   138   71  136 1    
   139   71  137 1    
@<TRIPOS>SUBSTRUCTURE
     1 UNK         1 GROUP             0       ****    0 ROOT    
