@<TRIPOS>MOLECULE
3R136
137   139    1
SMALL
USER_CHARGES


@<TRIPOS>ATOM
      1 CA         29.9952   17.4920    0.4479 C.3       0 UNK        -0.1979 
      2 C          29.2822   18.8231    0.6386 C.2       0 UNK         0.4864 
      3 O          28.1699   18.8453    1.1683 O.2       0 UNK        -0.5359 
      4 N          29.9207   19.9245    0.2162 N.am      1 UNK        -0.4318 
      5 CA         29.4057   21.3006    0.2508 C.3       1 UNK         0.0824 
      6 C6         29.0832   21.7851    1.6956 C.3       12 UNK        -0.0944 
      7 S7         29.3357   23.5752    1.9259 S.3       12 UNK        -0.2672 
      8 C8         28.9933   23.7068    3.7048 C.3       12 UNK         0.0333 
      9 C9         29.2619   25.1156    4.2038 C.ar      12 UNK        -0.0807 
     10 C10        30.5373   25.4680    4.6531 C.ar      12 UNK        -0.0894 
     11 C11        30.7946   26.7628    5.1116 C.ar      12 UNK        -0.0804 
     12 C12        29.7702   27.7128    5.0993 C.ar      12 UNK        -0.0824 
     13 C13        28.4887   27.3728    4.6523 C.ar      12 UNK        -0.0762 
     14 C14        28.2376   26.0662    4.2193 C.ar      12 UNK        -0.0782 
     15 C15        27.3857   28.4274    4.6377 C.3       12 UNK         0.0230 
     16 S16        26.5136   28.5535    3.0375 S.3       12 UNK        -0.2608 
     17 C17        27.8959   28.7104    1.8562 C.3       12 UNK        -0.0989 
     18 CA         27.9094   27.5383    0.8364 C.3       5 UNK         0.0716 
     19 N          26.7503   27.5047   -0.0657 N.am      5 UNK        -0.4135 
     20 C          26.2698   28.4851   -0.8495 C.2       4 UNK         0.5031 
     21 O          26.7180   29.6322   -0.8826 O.2       4 UNK        -0.5229 
     22 CA         25.0835   28.1458   -1.7779 C.3       4 UNK         0.0329 
     23 CB         25.5244   28.1899   -3.2513 C.3       4 UNK        -0.2001 
     24 N          24.4768   26.8404   -1.5132 N.am      4 UNK        -0.4303 
     25 C          23.6731   26.5508   -0.4804 C.2       3 UNK         0.5044 
     26 O          23.2597   27.3872    0.3225 O.2       3 UNK        -0.5152 
     27 CA         23.2884   25.0686   -0.2970 C.3       3 UNK         0.0319 
     28 CB         21.8772   24.8073   -0.8481 C.3       3 UNK        -0.2001 
     29 N          24.2310   24.1236   -0.9140 N.am      3 UNK        -0.4354 
     30 C          25.5178   23.9878   -0.5647 C.2       2 UNK         0.4964 
     31 O          26.0635   24.6527    0.3201 O.2       2 UNK        -0.5047 
     32 CA         26.3504   23.0021   -1.3880 C.3       2 UNK         0.0288 
     33 CB         26.8099   23.6519   -2.7078 C.3       2 UNK        -0.2113 
     34 N          27.5088   22.6130   -0.5926 N.am      2 UNK        -0.4145 
     35 C          28.2460   21.5106   -0.7547 C.2       1 UNK         0.5006 
     36 O          28.0573   20.7001   -1.6672 O.2       1 UNK        -0.5103 
     37 C          29.2453   27.4634    0.0703 C.2       5 UNK         0.5055 
     38 O          29.3438   27.8970   -1.0801 O.2       5 UNK        -0.5220 
     39 N          30.2660   26.9027    0.7350 N.am      6 UNK        -0.4450 
     40 CA         31.6308   26.7910    0.2090 C.3       6 UNK         0.0367 
     41 CB         32.4139   25.7575    1.0342 C.3       6 UNK        -0.1929 
     42 C          32.3719   28.1408    0.1667 C.2       6 UNK         0.5070 
     43 O          33.2254   28.3357   -0.6992 O.2       6 UNK        -0.5237 
     44 N          32.0181   29.0502    1.0798 N.am      7 UNK        -0.4739 
     45 CA         32.4777   30.4326    1.1623 C.3       7 UNK         0.0276 
     46 CB         33.8802   30.4993    1.7973 C.3       7 UNK        -0.1927 
     47 C          31.4576   31.2112    2.0014 C.2       7 UNK         0.5013 
     48 O          30.5799   30.6024    2.6219 O.2       7 UNK        -0.5193 
     49 N          31.6009   32.5415    2.0407 N.am      8 UNK        -0.4253 
     50 CA         30.7879   33.4503    2.8550 C.3       8 UNK         0.0242 
     51 CB         30.9528   34.8847    2.3188 C.3       8 UNK        -0.2000 
     52 C          31.1449   33.3367    4.3506 C.2       8 UNK         0.4948 
     53 O          31.7795   34.2365    4.9047 O.2       8 UNK        -0.5275 
     54 N          30.7820   32.1976    4.9565 N.am      9 UNK        -0.4246 
     55 CA         31.0181   31.7518    6.3382 C.3       9 UNK         0.0261 
     56 CB         30.3805   32.7100    7.3626 C.3       9 UNK        -0.1959 
     57 C          32.4952   31.4797    6.6767 C.2       9 UNK         0.5033 
     58 O          32.7932   30.4592    7.2991 O.2       9 UNK        -0.5390 
     59 N          33.3964   32.3735    6.2562 N.am      10 UNK        -0.4215 
     60 CA         34.8450   32.3066    6.4513 C.3       10 UNK         0.0240 
     61 CB         35.4246   33.7274    6.3159 C.3       10 UNK        -0.1982 
     62 C          35.5182   31.2965    5.5004 C.2       10 UNK         0.4970 
     63 O          36.3640   31.6805    4.6901 O.2       10 UNK        -0.4916 
     64 N          35.1241   30.0234    5.6103 N.am      11 UNK        -0.4279 
     65 CA         35.7358   28.8860    4.9091 C.3       11 UNK         0.1003 
     66 C          37.2003   28.6303    5.3616 C.2       11 UNK         0.5709 
     67 N          38.0572   28.1712    4.4595 N.am      11 UNK        -0.7358 
     68 O          37.5546   28.8042    6.5268 O.2       11 UNK        -0.4999 
     69 C69        34.8879   27.5988    5.0652 C.3       12 UNK        -0.0954 
     70 S70        33.2399   27.7404    4.2985 S.3       12 UNK        -0.2268 
     71 C71        32.1758   27.1246    5.6336 C.3       12 UNK         0.0203 
     72 H72        30.9730   17.6150   -0.0175 H         1 UNK         0.0888 
     73 H73        30.1377   17.0013    1.4104 H         1 UNK         0.0888 
     74 H74        29.3991   16.8352   -0.1851 H         1 UNK         0.0888 
     75 H75        30.8190   19.8202   -0.2349 H         1 UNK         0.3017 
     76 H76        30.2291   21.9070   -0.1302 H         1 UNK         0.0873 
     77 H77        28.0684   21.5125    1.9932 H         1 UNK         0.0745 
     78 H78        29.7431   21.2839    2.4059 H         1 UNK         0.0745 
     79 H79        27.9561   23.4268    3.8966 H         1 UNK         0.0705 
     80 H80        29.6135   22.9941    4.2509 H         1 UNK         0.0705 
     81 H81        31.3309   24.7330    4.6472 H         1 UNK         0.1334 
     82 H82        29.9749   28.7179    5.4392 H         1 UNK         0.1417 
     83 H83        27.2488   25.7962    3.8729 H         1 UNK         0.1562 
     84 H84        27.7915   29.4106    4.8816 H         1 UNK         0.0748 
     85 H85        26.6604   28.1916    5.4174 H         1 UNK         0.0748 
     86 H86        28.8315   28.7391    2.4132 H         1 UNK         0.0940 
     87 H87        27.8372   29.6806    1.3629 H         1 UNK         0.0940 
     88 H88        27.8403   26.6068    1.4007 H         1 UNK         0.0703 
     89 H89        26.3033   26.5960   -0.1141 H         1 UNK         0.3081 
     90 H90        24.3235   28.9152   -1.6255 H         1 UNK         0.0719 
     91 H91        26.2917   27.4445   -3.4652 H         1 UNK         0.0809 
     92 H92        24.6848   28.0136   -3.9240 H         1 UNK         0.0809 
     93 H93        25.9404   29.1658   -3.5059 H         1 UNK         0.0809 
     94 H94        24.7418   26.0865   -2.1294 H         1 UNK         0.2990 
     95 H95        23.2784   24.8702    0.7770 H         1 UNK         0.0690 
     96 H96        21.5526   23.7870   -0.6426 H         1 UNK         0.0788 
     97 H97        21.8284   24.9663   -1.9262 H         1 UNK         0.0788 
     98 H98        21.1481   25.4754   -0.3871 H         1 UNK         0.0788 
     99 H99        23.8662   23.5490   -1.6609 H         1 UNK         0.2993 
    100 H100       25.7443   22.1174   -1.5961 H         1 UNK         0.0949 
    101 H101       25.9579   23.9523   -3.3187 H         1 UNK         0.0767 
    102 H102       27.4161   24.5413   -2.5283 H         1 UNK         0.0767 
    103 H103       27.4035   22.9605   -3.3062 H         1 UNK         0.0767 
    104 H104       27.7029   23.2279    0.1917 H         1 UNK         0.3013 
    105 H105       30.1098   26.5413    1.6664 H         1 UNK         0.3121 
    106 H106       31.5717   26.4235   -0.8179 H         1 UNK         0.0774 
    107 H107       31.9853   24.7611    0.9287 H         1 UNK         0.0815 
    108 H108       33.4523   25.6977    0.7054 H         1 UNK         0.0815 
    109 H109       32.4205   26.0063    2.0948 H         1 UNK         0.0815 
    110 H110       31.2891   28.8293    1.7475 H         1 UNK         0.2987 
    111 H111       32.5011   30.8581    0.1567 H         1 UNK         0.0949 
    112 H112       34.2873   31.5098    1.7513 H         1 UNK         0.0806 
    113 H113       34.5879   29.8453    1.2881 H         1 UNK         0.0806 
    114 H114       33.8541   30.2122    2.8478 H         1 UNK         0.0806 
    115 H115       32.3609   32.9626    1.5258 H         1 UNK         0.3010 
    116 H116       29.7366   33.1735    2.7460 H         1 UNK         0.0829 
    117 H117       30.3544   35.5885    2.8989 H         1 UNK         0.0813 
    118 H118       31.9895   35.2207    2.3688 H         1 UNK         0.0813 
    119 H119       30.6248   34.9610    1.2819 H         1 UNK         0.0813 
    120 H120       30.3809   31.4927    4.3422 H         1 UNK         0.3038 
    121 H121       30.5013   30.7958    6.4280 H         1 UNK         0.0769 
    122 H122       29.3164   32.8453    7.1692 H         1 UNK         0.0811 
    123 H123       30.8506   33.6938    7.3534 H         1 UNK         0.0811 
    124 H124       30.4781   32.3157    8.3750 H         1 UNK         0.0811 
    125 H125       33.0342   33.1763    5.7444 H         1 UNK         0.3204 
    126 H126       35.0410   31.9653    7.4700 H         1 UNK         0.0748 
    127 H127       34.9816   34.4070    7.0443 H         1 UNK         0.0771 
    128 H128       36.5020   33.7298    6.4868 H         1 UNK         0.0771 
    129 H129       35.2488   34.1417    5.3221 H         1 UNK         0.0771 
    130 H130       34.3972   29.8076    6.2842 H         1 UNK         0.2980 
    131 H131       35.7666   29.1421    3.8485 H         1 UNK         0.0545 
    132 H132       39.0080   27.9849    4.7381 H         1 UNK         0.3459 
    133 H133       37.7751   28.0120    3.5048 H         1 UNK         0.3459 
    134 H134       34.7872   27.3409    6.1211 H         1 UNK         0.0616 
    135 H135       35.3863   26.7510    4.5912 H         1 UNK         0.0616 
    136 H136       32.1037   27.8810    6.4165 H         1 UNK         0.0634 
    137 H137       32.6345   26.2465    6.0910 H         1 UNK         0.0634 
@<TRIPOS>BOND
     1    1    2 1    
     2    1   72 1    
     3    1   73 1    
     4    1   74 1    
     5    2    3 2    
     6    2    4 am   BACKBONE|DICT|INTERRES
     7    4    5 1    
     8    4   75 1    
     9    5    6 1    
    10    5   35 1    
    11    5   76 1    
    12    6    7 1    
    13    6   77 1    
    14    6   78 1    
    15    7    8 1    
    16    8    9 1    
    17    8   79 1    
    18    8   80 1    
    19    9   10 ar   
    20    9   14 ar   
    21   10   11 ar   
    22   10   81 1    
    23   11   12 ar   
    24   11   71 1    
    25   12   13 ar   
    26   12   82 1    
    27   13   14 ar   
    28   13   15 1    
    29   14   83 1    
    30   15   16 1    
    31   15   84 1    
    32   15   85 1    
    33   16   17 1    
    34   17   18 1    
    35   17   86 1    
    36   17   87 1    
    37   18   19 1    
    38   18   37 1    
    39   18   88 1    
    40   19   20 am   BACKBONE|DICT|INTERRES
    41   19   89 1    
    42   20   21 2    
    43   20   22 1    
    44   22   23 1    
    45   22   24 1    
    46   22   90 1    
    47   23   91 1    
    48   23   92 1    
    49   23   93 1    
    50   24   25 am   BACKBONE|DICT|INTERRES
    51   24   94 1    
    52   25   26 2    
    53   25   27 1    
    54   27   28 1    
    55   27   29 1    
    56   27   95 1    
    57   28   96 1    
    58   28   97 1    
    59   28   98 1    
    60   29   30 am   BACKBONE|DICT|INTERRES
    61   29   99 1    
    62   30   31 2    
    63   30   32 1    
    64   32   33 1    
    65   32   34 1    
    66   32  100 1    
    67   33  101 1    
    68   33  102 1    
    69   33  103 1    
    70   34   35 am   BACKBONE|DICT|INTERRES
    71   34  104 1    
    72   35   36 2    
    73   37   38 2    
    74   37   39 am   BACKBONE|DICT|INTERRES
    75   39   40 1    
    76   39  105 1    
    77   40   41 1    
    78   40   42 1    
    79   40  106 1    
    80   41  107 1    
    81   41  108 1    
    82   41  109 1    
    83   42   43 2    
    84   42   44 am   BACKBONE|DICT|INTERRES
    85   44   45 1    
    86   44  110 1    
    87   45   46 1    
    88   45   47 1    
    89   45  111 1    
    90   46  112 1    
    91   46  113 1    
    92   46  114 1    
    93   47   48 2    
    94   47   49 am   BACKBONE|DICT|INTERRES
    95   49   50 1    
    96   49  115 1    
    97   50   51 1    
    98   50   52 1    
    99   50  116 1    
   100   51  117 1    
   101   51  118 1    
   102   51  119 1    
   103   52   53 2    
   104   52   54 am   BACKBONE|DICT|INTERRES
   105   54   55 1    
   106   54  120 1    
   107   55   56 1    
   108   55   57 1    
   109   55  121 1    
   110   56  122 1    
   111   56  123 1    
   112   56  124 1    
   113   57   58 2    
   114   57   59 am   BACKBONE|DICT|INTERRES
   115   59   60 1    
   116   59  125 1    
   117   60   61 1    
   118   60   62 1    
   119   60  126 1    
   120   61  127 1    
   121   61  128 1    
   122   61  129 1    
   123   62   63 2    
   124   62   64 am   BACKBONE|DICT|INTERRES
   125   64   65 1    
   126   64  130 1    
   127   65   66 1    
   128   65   69 1    
   129   65  131 1    
   130   66   67 am   BACKBONE|DICT|INTERRES
   131   66   68 2    
   132   67  132 1    
   133   67  133 1    
   134   69   70 1    
   135   69  134 1    
   136   69  135 1    
   137   70   71 1    
   138   71  136 1    
   139   71  137 1    
@<TRIPOS>SUBSTRUCTURE
     1 UNK         1 GROUP             0       ****    0 ROOT    
