@<TRIPOS>MOLECULE
3R136
137   139    1
SMALL
USER_CHARGES


@<TRIPOS>ATOM
      1 CA         30.0373   19.2822   -0.6343 C.3       0 UNK        -0.1979 
      2 C          29.9933   20.7489   -0.2320 C.2       0 UNK         0.4864 
      3 O          30.8177   21.5355   -0.6988 O.2       0 UNK        -0.5359 
      4 N          29.0347   21.1226    0.6269 N.am      1 UNK        -0.4318 
      5 CA         28.8573   22.4852    1.1463 C.3       1 UNK         0.0824 
      6 C6         28.0328   22.4930    2.4614 C.3       12 UNK        -0.0944 
      7 S7         29.0085   21.8916    3.8847 S.3       12 UNK        -0.2672 
      8 C8         29.2731   23.4184    4.8554 C.3       12 UNK         0.0333 
      9 C9         30.4441   24.2487    4.3402 C.ar      12 UNK        -0.0807 
     10 C10        31.6366   24.3293    5.0670 C.ar      12 UNK        -0.0894 
     11 C11        32.7010   25.1094    4.6009 C.ar      12 UNK        -0.0804 
     12 C12        32.5811   25.7847    3.3817 C.ar      12 UNK        -0.0824 
     13 C13        31.4001   25.6997    2.6397 C.ar      12 UNK        -0.0762 
     14 C14        30.3310   24.9563    3.1420 C.ar      12 UNK        -0.0782 
     15 C15        31.2957   26.3695    1.2769 C.3       12 UNK         0.0230 
     16 S16        30.7177   28.0871    1.3881 S.3       12 UNK        -0.2608 
     17 C17        28.9085   27.9034    1.5892 C.3       12 UNK        -0.0989 
     18 CA         28.0875   28.0801    0.2793 C.3       5 UNK         0.0716 
     19 N          26.6467   27.8463    0.4441 N.am      5 UNK        -0.4135 
     20 C          25.8155   28.4070    1.3399 C.2       4 UNK         0.5031 
     21 O          26.1729   29.1540    2.2515 O.2       4 UNK        -0.5229 
     22 CA         24.3097   28.1035    1.2120 C.3       4 UNK         0.0329 
     23 CB         23.5625   29.3316    0.6649 C.3       4 UNK        -0.2001 
     24 N          23.9944   26.9487    0.3704 N.am      4 UNK        -0.4303 
     25 C          24.1841   25.6683    0.7133 C.2       3 UNK         0.5044 
     26 O          24.6442   25.3070    1.7970 O.2       3 UNK        -0.5152 
     27 CA         23.8055   24.6030   -0.3334 C.3       3 UNK         0.0319 
     28 CB         22.8168   25.1001   -1.4138 C.3       3 UNK        -0.2001 
     29 N          24.9955   24.0127   -0.9540 N.am      3 UNK        -0.4354 
     30 C          25.9676   24.6571   -1.6180 C.2       2 UNK         0.4964 
     31 O          25.9834   25.8760   -1.8136 O.2       2 UNK        -0.5047 
     32 CA         27.1335   23.7728   -2.1046 C.3       2 UNK         0.0288 
     33 CB         28.2216   24.5737   -2.8538 C.3       2 UNK        -0.2113 
     34 N          27.7292   22.9862   -1.0130 N.am      2 UNK        -0.4145 
     35 C          28.2650   23.4759    0.1179 C.2       1 UNK         0.5006 
     36 O          28.3067   24.6776    0.3781 O.2       1 UNK        -0.5103 
     37 C          28.3468   29.4366   -0.4088 C.2       5 UNK         0.5055 
     38 O          27.8870   30.4773    0.0648 O.2       5 UNK        -0.5220 
     39 N          29.1450   29.4135   -1.4860 N.am      6 UNK        -0.4450 
     40 CA         29.5956   30.6057   -2.2158 C.3       6 UNK         0.0367 
     41 CB         30.3153   30.1713   -3.5027 C.3       6 UNK        -0.1929 
     42 C          30.4999   31.5339   -1.3807 C.2       6 UNK         0.5070 
     43 O          30.5116   32.7412   -1.6193 O.2       6 UNK        -0.5237 
     44 N          31.2169   30.9586   -0.4061 N.am      7 UNK        -0.4739 
     45 CA         32.0442   31.6688    0.5721 C.3       7 UNK         0.0276 
     46 CB         33.3404   30.8678    0.7983 C.3       7 UNK        -0.1927 
     47 C          31.3045   31.9100    1.9030 C.2       7 UNK         0.5013 
     48 O          31.9515   32.2966    2.8761 O.2       7 UNK        -0.5193 
     49 N          29.9874   31.6429    1.9523 N.am      8 UNK        -0.4253 
     50 CA         29.0875   31.8021    3.1062 C.3       8 UNK         0.0242 
     51 CB         28.8427   33.3004    3.3838 C.3       8 UNK        -0.2000 
     52 C          29.5329   31.0338    4.3702 C.2       8 UNK         0.4948 
     53 O          29.2531   31.4760    5.4858 O.2       8 UNK        -0.5275 
     54 N          30.2308   29.9065    4.1660 N.am      9 UNK        -0.4246 
     55 CA         30.8468   29.0376    5.1726 C.3       9 UNK         0.0261 
     56 CB         29.7770   28.3242    6.0244 C.3       9 UNK        -0.1959 
     57 C          31.9317   29.7408    6.0142 C.2       9 UNK         0.5033 
     58 O          32.1145   29.4038    7.1861 O.2       9 UNK        -0.5390 
     59 N          32.6728   30.6786    5.4039 N.am      10 UNK        -0.4215 
     60 CA         33.8847   31.2765    5.9704 C.3       10 UNK         0.0240 
     61 CB         34.1414   32.6376    5.2979 C.3       10 UNK        -0.1982 
     62 C          35.0719   30.3061    5.8152 C.2       10 UNK         0.4970 
     63 O          35.9483   30.5285    4.9780 O.2       10 UNK        -0.4916 
     64 N          35.0425   29.2166    6.5916 N.am      11 UNK        -0.4279 
     65 CA         35.9861   28.0873    6.5170 C.3       11 UNK         0.1003 
     66 C          37.4394   28.4007    6.9789 C.2       11 UNK         0.5709 
     67 N          37.6987   29.5124    7.6571 N.am      11 UNK        -0.7358 
     68 O          38.3496   27.6194    6.7117 O.2       11 UNK        -0.4999 
     69 C69        35.4421   26.8247    7.2422 C.3       12 UNK        -0.0954 
     70 S70        33.7270   26.4084    6.7829 S.3       12 UNK        -0.2268 
     71 C71        33.9754   25.2356    5.4202 C.3       12 UNK         0.0203 
     72 H72        31.0014   18.8496   -0.3681 H         1 UNK         0.0888 
     73 H73        29.2581   18.7002   -0.1423 H         1 UNK         0.0888 
     74 H74        29.9054   19.1838   -1.7115 H         1 UNK         0.0888 
     75 H75        28.3972   20.4284    0.9912 H         1 UNK         0.3017 
     76 H76        29.8541   22.8709    1.3692 H         1 UNK         0.0873 
     77 H77        27.6494   23.4874    2.6971 H         1 UNK         0.0745 
     78 H78        27.1452   21.8664    2.3586 H         1 UNK         0.0745 
     79 H79        28.3644   24.0220    4.8640 H         1 UNK         0.0705 
     80 H80        29.4489   23.1326    5.8936 H         1 UNK         0.0705 
     81 H81        31.7334   23.8020    6.0063 H         1 UNK         0.1334 
     82 H82        33.4066   26.3751    3.0081 H         1 UNK         0.1417 
     83 H83        29.4106   24.9100    2.5856 H         1 UNK         0.1562 
     84 H84        30.6413   25.8026    0.6146 H         1 UNK         0.0748 
     85 H85        32.2755   26.3673    0.7969 H         1 UNK         0.0748 
     86 H86        28.5987   28.6353    2.3334 H         1 UNK         0.0940 
     87 H87        28.6813   26.9346    2.0291 H         1 UNK         0.0940 
     88 H88        28.4128   27.2971   -0.4076 H         1 UNK         0.0703 
     89 H89        26.2394   27.2383   -0.2593 H         1 UNK         0.3081 
     90 H90        23.9366   27.9001    2.2181 H         1 UNK         0.0719 
     91 H91        23.8861   29.5838   -0.3457 H         1 UNK         0.0809 
     92 H92        22.4853   29.1656    0.6433 H         1 UNK         0.0809 
     93 H93        23.7402   30.2075    1.2906 H         1 UNK         0.0809 
     94 H94        23.6385   27.1429   -0.5546 H         1 UNK         0.2990 
     95 H95        23.3108   23.8008    0.2164 H         1 UNK         0.0690 
     96 H96        22.4879   24.2754   -2.0462 H         1 UNK         0.0788 
     97 H97        23.2538   25.8554   -2.0678 H         1 UNK         0.0788 
     98 H98        21.9214   25.5288   -0.9612 H         1 UNK         0.0788 
     99 H99        25.1082   23.0192   -0.8085 H         1 UNK         0.2993 
    100 H100       26.7053   23.0604   -2.8116 H         1 UNK         0.0949 
    101 H101       29.0133   23.9193   -3.2185 H         1 UNK         0.0767 
    102 H102       27.8010   25.0879   -3.7189 H         1 UNK         0.0767 
    103 H103       28.6810   25.3313   -2.2181 H         1 UNK         0.0767 
    104 H104       27.7331   21.9838   -1.1374 H         1 UNK         0.3013 
    105 H105       29.4989   28.5251   -1.8121 H         1 UNK         0.3121 
    106 H106       28.7097   31.1800   -2.4958 H         1 UNK         0.0774 
    107 H107       31.2034   29.5753   -3.2886 H         1 UNK         0.0815 
    108 H108       30.6376   31.0390   -4.0803 H         1 UNK         0.0815 
    109 H109       29.6606   29.5827   -4.1457 H         1 UNK         0.0815 
    110 H110       31.1334   29.9589   -0.2767 H         1 UNK         0.2987 
    111 H111       32.3195   32.6509    0.1816 H         1 UNK         0.0949 
    112 H112       33.1448   29.8951    1.2502 H         1 UNK         0.0806 
    113 H113       33.8714   30.7012   -0.1390 H         1 UNK         0.0806 
    114 H114       34.0224   31.4018    1.4616 H         1 UNK         0.0806 
    115 H115       29.5353   31.3151    1.1055 H         1 UNK         0.3010 
    116 H116       28.1348   31.3600    2.8089 H         1 UNK         0.0829 
    117 H117       29.7468   33.7967    3.7382 H         1 UNK         0.0813 
    118 H118       28.5038   33.8192    2.4873 H         1 UNK         0.0813 
    119 H119       28.0744   33.4392    4.1454 H         1 UNK         0.0813 
    120 H120       30.4052   29.6371    3.2063 H         1 UNK         0.3038 
    121 H121       31.3731   28.2634    4.6124 H         1 UNK         0.0769 
    122 H122       30.2331   27.5734    6.6712 H         1 UNK         0.0811 
    123 H123       29.2363   29.0220    6.6640 H         1 UNK         0.0811 
    124 H124       29.0515   27.8080    5.3958 H         1 UNK         0.0811 
    125 H125       32.4361   30.9587    4.4579 H         1 UNK         0.3204 
    126 H126       33.7335   31.4571    7.0368 H         1 UNK         0.0748 
    127 H127       35.0199   33.1237    5.7238 H         1 UNK         0.0771 
    128 H128       34.3123   32.5354    4.2254 H         1 UNK         0.0771 
    129 H129       33.2964   33.3126    5.4360 H         1 UNK         0.0771 
    130 H130       34.2406   29.0866    7.1979 H         1 UNK         0.2980 
    131 H131       36.0687   27.8324    5.4588 H         1 UNK         0.0545 
    132 H132       38.6444   29.7055    7.9471 H         1 UNK         0.3459 
    133 H133       36.9589   30.1587    7.8794 H         1 UNK         0.3459 
    134 H134       36.0797   25.9604    7.0464 H         1 UNK         0.0616 
    135 H135       35.4609   26.9764    8.3229 H         1 UNK         0.0616 
    136 H136       34.7999   25.5748    4.7912 H         1 UNK         0.0634 
    137 H137       34.2654   24.2639    5.8223 H         1 UNK         0.0634 
@<TRIPOS>BOND
     1    1    2 1    
     2    1   72 1    
     3    1   73 1    
     4    1   74 1    
     5    2    3 2    
     6    2    4 am   BACKBONE|DICT|INTERRES
     7    4    5 1    
     8    4   75 1    
     9    5    6 1    
    10    5   35 1    
    11    5   76 1    
    12    6    7 1    
    13    6   77 1    
    14    6   78 1    
    15    7    8 1    
    16    8    9 1    
    17    8   79 1    
    18    8   80 1    
    19    9   10 ar   
    20    9   14 ar   
    21   10   11 ar   
    22   10   81 1    
    23   11   12 ar   
    24   11   71 1    
    25   12   13 ar   
    26   12   82 1    
    27   13   14 ar   
    28   13   15 1    
    29   14   83 1    
    30   15   16 1    
    31   15   84 1    
    32   15   85 1    
    33   16   17 1    
    34   17   18 1    
    35   17   86 1    
    36   17   87 1    
    37   18   19 1    
    38   18   37 1    
    39   18   88 1    
    40   19   20 am   BACKBONE|DICT|INTERRES
    41   19   89 1    
    42   20   21 2    
    43   20   22 1    
    44   22   23 1    
    45   22   24 1    
    46   22   90 1    
    47   23   91 1    
    48   23   92 1    
    49   23   93 1    
    50   24   25 am   BACKBONE|DICT|INTERRES
    51   24   94 1    
    52   25   26 2    
    53   25   27 1    
    54   27   28 1    
    55   27   29 1    
    56   27   95 1    
    57   28   96 1    
    58   28   97 1    
    59   28   98 1    
    60   29   30 am   BACKBONE|DICT|INTERRES
    61   29   99 1    
    62   30   31 2    
    63   30   32 1    
    64   32   33 1    
    65   32   34 1    
    66   32  100 1    
    67   33  101 1    
    68   33  102 1    
    69   33  103 1    
    70   34   35 am   BACKBONE|DICT|INTERRES
    71   34  104 1    
    72   35   36 2    
    73   37   38 2    
    74   37   39 am   BACKBONE|DICT|INTERRES
    75   39   40 1    
    76   39  105 1    
    77   40   41 1    
    78   40   42 1    
    79   40  106 1    
    80   41  107 1    
    81   41  108 1    
    82   41  109 1    
    83   42   43 2    
    84   42   44 am   BACKBONE|DICT|INTERRES
    85   44   45 1    
    86   44  110 1    
    87   45   46 1    
    88   45   47 1    
    89   45  111 1    
    90   46  112 1    
    91   46  113 1    
    92   46  114 1    
    93   47   48 2    
    94   47   49 am   BACKBONE|DICT|INTERRES
    95   49   50 1    
    96   49  115 1    
    97   50   51 1    
    98   50   52 1    
    99   50  116 1    
   100   51  117 1    
   101   51  118 1    
   102   51  119 1    
   103   52   53 2    
   104   52   54 am   BACKBONE|DICT|INTERRES
   105   54   55 1    
   106   54  120 1    
   107   55   56 1    
   108   55   57 1    
   109   55  121 1    
   110   56  122 1    
   111   56  123 1    
   112   56  124 1    
   113   57   58 2    
   114   57   59 am   BACKBONE|DICT|INTERRES
   115   59   60 1    
   116   59  125 1    
   117   60   61 1    
   118   60   62 1    
   119   60  126 1    
   120   61  127 1    
   121   61  128 1    
   122   61  129 1    
   123   62   63 2    
   124   62   64 am   BACKBONE|DICT|INTERRES
   125   64   65 1    
   126   64  130 1    
   127   65   66 1    
   128   65   69 1    
   129   65  131 1    
   130   66   67 am   BACKBONE|DICT|INTERRES
   131   66   68 2    
   132   67  132 1    
   133   67  133 1    
   134   69   70 1    
   135   69  134 1    
   136   69  135 1    
   137   70   71 1    
   138   71  136 1    
   139   71  137 1    
@<TRIPOS>SUBSTRUCTURE
     1 UNK         1 GROUP             0       ****    0 ROOT    
