@<TRIPOS>MOLECULE
3R136
137   139    1
SMALL
USER_CHARGES


@<TRIPOS>ATOM
      1 CA         29.8765   23.5310    4.5685 C.3       0 UNK        -0.1979 
      2 C          30.6210   23.5827    3.2446 C.2       0 UNK         0.4864 
      3 O          30.8124   22.5438    2.6117 O.2       0 UNK        -0.5359 
      4 N          31.0539   24.7817    2.8272 N.am      1 UNK        -0.4318 
      5 CA         31.8625   24.9905    1.6196 C.3       1 UNK         0.0824 
      6 C6         32.5990   26.3566    1.6391 C.3       12 UNK        -0.0944 
      7 S7         31.5558   27.8247    1.3154 S.3       12 UNK        -0.2672 
      8 C8         31.5420   28.6864    2.9202 C.3       12 UNK         0.0333 
      9 C9         30.6843   27.9968    3.9713 C.ar      12 UNK        -0.0807 
     10 C10        31.1663   27.8515    5.2737 C.ar      12 UNK        -0.0894 
     11 C11        30.4134   27.1834    6.2474 C.ar      12 UNK        -0.0804 
     12 C12        29.1357   26.7202    5.9140 C.ar      12 UNK        -0.0824 
     13 C13        28.6271   26.8858    4.6215 C.ar      12 UNK        -0.0762 
     14 C14        29.4071   27.5262    3.6570 C.ar      12 UNK        -0.0782 
     15 C15        27.2582   26.3292    4.2580 C.3       12 UNK         0.0230 
     16 S16        25.9206   27.5420    4.4971 S.3       12 UNK        -0.2608 
     17 C17        26.0802   28.7059    3.0918 C.3       12 UNK        -0.0989 
     18 CA         26.1615   28.0568    1.6755 C.3       5 UNK         0.0716 
     19 N          25.1537   27.0238    1.4335 N.am      5 UNK        -0.4135 
     20 C          23.8280   27.1943    1.3264 C.2       4 UNK         0.5031 
     21 O          23.2669   28.2847    1.4519 O.2       4 UNK        -0.5229 
     22 CA         22.9754   25.9310    1.0695 C.3       4 UNK         0.0329 
     23 CB         21.7397   26.2197    0.1896 C.3       4 UNK        -0.2001 
     24 N          23.7412   24.7848    0.5558 N.am      4 UNK        -0.4303 
     25 C          24.3817   24.6984   -0.6189 C.2       3 UNK         0.5044 
     26 O          24.3492   25.5586   -1.5005 O.2       3 UNK        -0.5152 
     27 CA         25.2411   23.4405   -0.8262 C.3       3 UNK         0.0319 
     28 CB         24.6824   22.5744   -1.9671 C.3       3 UNK        -0.2001 
     29 N          26.6342   23.7905   -1.1146 N.am      3 UNK        -0.4354 
     30 C          27.4517   24.4383   -0.2734 C.2       2 UNK         0.4964 
     31 O          27.1319   24.7949    0.8654 O.2       2 UNK        -0.5047 
     32 CA         28.8546   24.7560   -0.8007 C.3       2 UNK         0.0288 
     33 CB         28.8498   26.0476   -1.6392 C.3       2 UNK        -0.2113 
     34 N          29.7592   24.9083    0.3330 N.am      2 UNK        -0.4145 
     35 C          31.0890   24.7535    0.3008 C.2       1 UNK         0.5006 
     36 O          31.7143   24.4398   -0.7143 O.2       1 UNK        -0.5103 
     37 C          26.1999   29.0615    0.5010 C.2       5 UNK         0.5055 
     38 O          26.4998   28.6421   -0.6175 O.2       5 UNK        -0.5220 
     39 N          25.9146   30.3485    0.7627 N.am      6 UNK        -0.4450 
     40 CA         25.9134   31.4674   -0.1941 C.3       6 UNK         0.0367 
     41 CB         24.7963   31.2936   -1.2459 C.3       6 UNK        -0.1929 
     42 C          27.2994   31.7256   -0.8222 C.2       6 UNK         0.5070 
     43 O          27.4005   32.0392   -2.0097 O.2       6 UNK        -0.5237 
     44 N          28.3435   31.5911   -0.0001 N.am      7 UNK        -0.4739 
     45 CA         29.7543   31.7586   -0.3329 C.3       7 UNK         0.0276 
     46 CB         30.2618   30.5120   -1.0850 C.3       7 UNK        -0.1927 
     47 C          30.5240   31.9930    0.9757 C.2       7 UNK         0.5013 
     48 O          29.9261   31.9109    2.0536 O.2       7 UNK        -0.5193 
     49 N          31.8272   32.2722    0.8680 N.am      8 UNK        -0.4253 
     50 CA         32.7387   32.4383    1.9982 C.3       8 UNK         0.0242 
     51 CB         33.0644   33.9298    2.1872 C.3       8 UNK        -0.2000 
     52 C          34.0090   31.6264    1.7253 C.2       8 UNK         0.4948 
     53 O          34.5678   31.7305    0.6310 O.2       8 UNK        -0.5275 
     54 N          34.4344   30.8528    2.7280 N.am      9 UNK        -0.4246 
     55 CA         35.5876   29.9541    2.7652 C.3       9 UNK         0.0261 
     56 CB         35.5116   28.8887    1.6507 C.3       9 UNK        -0.1959 
     57 C          35.5850   29.2859    4.1484 C.2       9 UNK         0.5033 
     58 O          34.5977   29.4074    4.8807 O.2       9 UNK        -0.5390 
     59 N          36.6581   28.5574    4.4800 N.am      10 UNK        -0.4215 
     60 CA         36.8579   27.8584    5.7591 C.3       10 UNK         0.0240 
     61 CB         38.3659   27.6082    5.9539 C.3       10 UNK        -0.1982 
     62 C          36.0194   26.5673    5.9252 C.2       10 UNK         0.4970 
     63 O          36.5181   25.5825    6.4726 O.2       10 UNK        -0.4916 
     64 N          34.7657   26.5970    5.4572 N.am      11 UNK        -0.4279 
     65 CA         33.7456   25.5378    5.5709 C.3       11 UNK         0.1003 
     66 C          34.1048   24.1896    4.8754 C.2       11 UNK         0.5709 
     67 N          35.0015   24.1773    3.8961 N.am      11 UNK        -0.7358 
     68 O          33.5418   23.1470    5.1986 O.2       11 UNK        -0.4999 
     69 C69        33.2135   25.3551    7.0245 C.3       12 UNK        -0.0954 
     70 S70        32.7524   26.9229    7.8468 S.3       12 UNK        -0.2268 
     71 C71        30.9324   26.9643    7.6701 C.3       12 UNK         0.0203 
     72 H72        28.8131   23.7105    4.4147 H         1 UNK         0.0888 
     73 H73        29.9938   22.5511    5.0315 H         1 UNK         0.0888 
     74 H74        30.2659   24.2713    5.2661 H         1 UNK         0.0888 
     75 H75        30.8401   25.6121    3.3638 H         1 UNK         0.3017 
     76 H76        32.6413   24.2244    1.6419 H         1 UNK         0.0873 
     77 H77        33.3801   26.3478    0.8767 H         1 UNK         0.0745 
     78 H78        33.1261   26.4834    2.5850 H         1 UNK         0.0745 
     79 H79        31.1583   29.6943    2.7748 H         1 UNK         0.0705 
     80 H80        32.5689   28.7933    3.2662 H         1 UNK         0.0705 
     81 H81        32.1411   28.2481    5.5209 H         1 UNK         0.1334 
     82 H82        28.5369   26.2167    6.6611 H         1 UNK         0.1417 
     83 H83        29.0320   27.6531    2.6531 H         1 UNK         0.1562 
     84 H84        27.0406   25.4657    4.8883 H         1 UNK         0.0748 
     85 H85        27.2555   25.9471    3.2387 H         1 UNK         0.0748 
     86 H86        26.9581   29.3293    3.2728 H         1 UNK         0.0940 
     87 H87        25.2155   29.3683    3.1575 H         1 UNK         0.0940 
     88 H88        27.1124   27.5332    1.6047 H         1 UNK         0.0703 
     89 H89        25.5328   26.0982    1.2718 H         1 UNK         0.3081 
     90 H90        22.6088   25.6245    2.0502 H         1 UNK         0.0719 
     91 H91        21.1489   25.3187    0.0254 H         1 UNK         0.0809 
     92 H92        22.0193   26.6214   -0.7845 H         1 UNK         0.0809 
     93 H93        21.0849   26.9520    0.6635 H         1 UNK         0.0809 
     94 H94        23.8473   24.0171    1.2054 H         1 UNK         0.2990 
     95 H95        25.2318   22.8446    0.0890 H         1 UNK         0.0690 
     96 H96        25.2565   21.6554   -2.0869 H         1 UNK         0.0788 
     97 H97        24.6935   23.1050   -2.9202 H         1 UNK         0.0788 
     98 H98        23.6494   22.2864   -1.7673 H         1 UNK         0.0788 
     99 H99        26.9658   23.5737   -2.0433 H         1 UNK         0.2993 
    100 H100       29.1897   23.9178   -1.4156 H         1 UNK         0.0949 
    101 H101       28.5690   26.9129   -1.0375 H         1 UNK         0.0767 
    102 H102       29.8320   26.2472   -2.0679 H         1 UNK         0.0767 
    103 H103       28.1419   25.9812   -2.4663 H         1 UNK         0.0767 
    104 H104       29.3007   25.1068    1.2122 H         1 UNK         0.3013 
    105 H105       25.6661   30.5931    1.7107 H         1 UNK         0.3121 
    106 H106       25.6773   32.3619    0.3842 H         1 UNK         0.0774 
    107 H107       24.7009   32.1859   -1.8657 H         1 UNK         0.0815 
    108 H108       24.9953   30.4552   -1.9141 H         1 UNK         0.0815 
    109 H109       23.8293   31.1226   -0.7731 H         1 UNK         0.0815 
    110 H110       28.1848   31.4014    0.9825 H         1 UNK         0.2987 
    111 H111       29.8744   32.6450   -0.9593 H         1 UNK         0.0949 
    112 H112       29.7585   30.3976   -2.0452 H         1 UNK         0.0806 
    113 H113       31.3312   30.5690   -1.2897 H         1 UNK         0.0806 
    114 H114       30.0843   29.6018   -0.5124 H         1 UNK         0.0806 
    115 H115       32.2685   32.2711   -0.0424 H         1 UNK         0.3010 
    116 H116       32.2779   32.0654    2.9159 H         1 UNK         0.0829 
    117 H117       32.1643   34.5063    2.4011 H         1 UNK         0.0813 
    118 H118       33.7507   34.0770    3.0221 H         1 UNK         0.0813 
    119 H119       33.5324   34.3568    1.2993 H         1 UNK         0.0813 
    120 H120       33.9234   30.8405    3.6045 H         1 UNK         0.3038 
    121 H121       36.4997   30.5445    2.6611 H         1 UNK         0.0769 
    122 H122       34.5684   28.3476    1.6828 H         1 UNK         0.0811 
    123 H123       35.6033   29.3329    0.6602 H         1 UNK         0.0811 
    124 H124       36.3134   28.1551    1.7371 H         1 UNK         0.0811 
    125 H125       37.4104   28.4790    3.8102 H         1 UNK         0.3204 
    126 H126       36.5351   28.5297    6.5578 H         1 UNK         0.0748 
    127 H127       38.5712   27.1776    6.9350 H         1 UNK         0.0771 
    128 H128       38.7596   26.9191    5.2057 H         1 UNK         0.0771 
    129 H129       38.9346   28.5361    5.8896 H         1 UNK         0.0771 
    130 H130       34.4474   27.4851    5.0847 H         1 UNK         0.2980 
    131 H131       32.9079   25.8943    4.9770 H         1 UNK         0.0545 
    132 H132       35.2267   23.3034    3.4483 H         1 UNK         0.3459 
    133 H133       35.4846   25.0198    3.6320 H         1 UNK         0.3459 
    134 H134       32.3486   24.6898    7.0342 H         1 UNK         0.0616 
    135 H135       33.9735   24.8712    7.6400 H         1 UNK         0.0616 
    136 H136       30.5271   26.0373    8.0786 H         1 UNK         0.0634 
    137 H137       30.5494   27.7701    8.2972 H         1 UNK         0.0634 
@<TRIPOS>BOND
     1    1    2 1    
     2    1   72 1    
     3    1   73 1    
     4    1   74 1    
     5    2    3 2    
     6    2    4 am   BACKBONE|DICT|INTERRES
     7    4    5 1    
     8    4   75 1    
     9    5    6 1    
    10    5   35 1    
    11    5   76 1    
    12    6    7 1    
    13    6   77 1    
    14    6   78 1    
    15    7    8 1    
    16    8    9 1    
    17    8   79 1    
    18    8   80 1    
    19    9   10 ar   
    20    9   14 ar   
    21   10   11 ar   
    22   10   81 1    
    23   11   12 ar   
    24   11   71 1    
    25   12   13 ar   
    26   12   82 1    
    27   13   14 ar   
    28   13   15 1    
    29   14   83 1    
    30   15   16 1    
    31   15   84 1    
    32   15   85 1    
    33   16   17 1    
    34   17   18 1    
    35   17   86 1    
    36   17   87 1    
    37   18   19 1    
    38   18   37 1    
    39   18   88 1    
    40   19   20 am   BACKBONE|DICT|INTERRES
    41   19   89 1    
    42   20   21 2    
    43   20   22 1    
    44   22   23 1    
    45   22   24 1    
    46   22   90 1    
    47   23   91 1    
    48   23   92 1    
    49   23   93 1    
    50   24   25 am   BACKBONE|DICT|INTERRES
    51   24   94 1    
    52   25   26 2    
    53   25   27 1    
    54   27   28 1    
    55   27   29 1    
    56   27   95 1    
    57   28   96 1    
    58   28   97 1    
    59   28   98 1    
    60   29   30 am   BACKBONE|DICT|INTERRES
    61   29   99 1    
    62   30   31 2    
    63   30   32 1    
    64   32   33 1    
    65   32   34 1    
    66   32  100 1    
    67   33  101 1    
    68   33  102 1    
    69   33  103 1    
    70   34   35 am   BACKBONE|DICT|INTERRES
    71   34  104 1    
    72   35   36 2    
    73   37   38 2    
    74   37   39 am   BACKBONE|DICT|INTERRES
    75   39   40 1    
    76   39  105 1    
    77   40   41 1    
    78   40   42 1    
    79   40  106 1    
    80   41  107 1    
    81   41  108 1    
    82   41  109 1    
    83   42   43 2    
    84   42   44 am   BACKBONE|DICT|INTERRES
    85   44   45 1    
    86   44  110 1    
    87   45   46 1    
    88   45   47 1    
    89   45  111 1    
    90   46  112 1    
    91   46  113 1    
    92   46  114 1    
    93   47   48 2    
    94   47   49 am   BACKBONE|DICT|INTERRES
    95   49   50 1    
    96   49  115 1    
    97   50   51 1    
    98   50   52 1    
    99   50  116 1    
   100   51  117 1    
   101   51  118 1    
   102   51  119 1    
   103   52   53 2    
   104   52   54 am   BACKBONE|DICT|INTERRES
   105   54   55 1    
   106   54  120 1    
   107   55   56 1    
   108   55   57 1    
   109   55  121 1    
   110   56  122 1    
   111   56  123 1    
   112   56  124 1    
   113   57   58 2    
   114   57   59 am   BACKBONE|DICT|INTERRES
   115   59   60 1    
   116   59  125 1    
   117   60   61 1    
   118   60   62 1    
   119   60  126 1    
   120   61  127 1    
   121   61  128 1    
   122   61  129 1    
   123   62   63 2    
   124   62   64 am   BACKBONE|DICT|INTERRES
   125   64   65 1    
   126   64  130 1    
   127   65   66 1    
   128   65   69 1    
   129   65  131 1    
   130   66   67 am   BACKBONE|DICT|INTERRES
   131   66   68 2    
   132   67  132 1    
   133   67  133 1    
   134   69   70 1    
   135   69  134 1    
   136   69  135 1    
   137   70   71 1    
   138   71  136 1    
   139   71  137 1    
@<TRIPOS>SUBSTRUCTURE
     1 UNK         1 GROUP             0       ****    0 ROOT    
