@<TRIPOS>MOLECULE
3R136
137   139    1
SMALL
USER_CHARGES


@<TRIPOS>ATOM
      1 CA         30.5593   28.0225   -1.9503 C.3       0 UNK        -0.1979 
      2 C          30.8924   26.5556   -1.7243 C.2       0 UNK         0.4864 
      3 O          31.4965   25.9235   -2.5912 O.2       0 UNK        -0.5359 
      4 N          30.4574   26.0002   -0.5852 N.am      1 UNK        -0.4318 
      5 CA         30.5984   24.6090   -0.1194 C.3       1 UNK         0.0824 
      6 C6         32.0558   24.0887   -0.0190 C.3       12 UNK        -0.0944 
      7 S7         33.0800   25.0575    1.1368 S.3       12 UNK        -0.2672 
      8 C8         33.1418   23.9676    2.5969 C.3       12 UNK         0.0333 
      9 C9         31.9376   24.1632    3.5084 C.ar      12 UNK        -0.0807 
     10 C10        32.0365   25.0061    4.6186 C.ar      12 UNK        -0.0894 
     11 C11        30.9465   25.1907    5.4736 C.ar      12 UNK        -0.0804 
     12 C12        29.7466   24.5257    5.2100 C.ar      12 UNK        -0.0824 
     13 C13        29.6289   23.6842    4.0987 C.ar      12 UNK        -0.0762 
     14 C14        30.7338   23.4942    3.2617 C.ar      12 UNK        -0.0782 
     15 C15        28.3179   22.9606    3.8153 C.3       12 UNK         0.0230 
     16 S16        27.2015   23.9336    2.7494 S.3       12 UNK        -0.2608 
     17 C17        26.6400   25.2464    3.8869 C.3       12 UNK        -0.0989 
     18 CA         27.2771   26.6135    3.5196 C.3       5 UNK         0.0716 
     19 N          26.7572   27.1618    2.2552 N.am      5 UNK        -0.4135 
     20 C          25.5386   27.6840    2.0501 C.2       4 UNK         0.5031 
     21 O          24.6360   27.6918    2.8878 O.2       4 UNK        -0.5229 
     22 CA         25.2854   28.3441    0.6854 C.3       4 UNK         0.0329 
     23 CB         26.1977   29.5708    0.4716 C.3       4 UNK        -0.2001 
     24 N          25.3400   27.4161   -0.4497 N.am      4 UNK        -0.4303 
     25 C          26.4000   26.7621   -0.9397 C.2       3 UNK         0.5044 
     26 O          27.5420   26.8332   -0.4696 O.2       3 UNK        -0.5152 
     27 CA         26.1291   25.9051   -2.1844 C.3       3 UNK         0.0319 
     28 CB         25.8597   26.7827   -3.4210 C.3       3 UNK        -0.2001 
     29 N          27.2921   25.0665   -2.4307 N.am      3 UNK        -0.4354 
     30 C          27.3100   23.8670   -3.0250 C.2       2 UNK         0.4964 
     31 O          26.3121   23.3238   -3.4999 O.2       2 UNK        -0.5047 
     32 CA         28.6738   23.1502   -3.1111 C.3       2 UNK         0.0288 
     33 CB         29.2038   23.1669   -4.5544 C.3       2 UNK        -0.2113 
     34 N          29.6760   23.7579   -2.2322 N.am      2 UNK        -0.4145 
     35 C          29.7105   23.6215   -0.9010 C.2       1 UNK         0.5006 
     36 O          29.0378   22.7943   -0.2856 O.2       1 UNK        -0.5103 
     37 C          27.2065   27.6607    4.6586 C.2       5 UNK         0.5055 
     38 O          26.7649   27.3579    5.7692 O.2       5 UNK        -0.5220 
     39 N          27.6232   28.8896    4.3333 N.am      6 UNK        -0.4450 
     40 CA         27.6308   30.0656    5.1982 C.3       6 UNK         0.0367 
     41 CB         26.2649   30.7798    5.1198 C.3       6 UNK        -0.1929 
     42 C          28.8222   30.9461    4.7887 C.2       6 UNK         0.5070 
     43 O          29.8350   30.4084    4.3466 O.2       6 UNK        -0.5237 
     44 N          28.6958   32.2759    4.8968 N.am      7 UNK        -0.4739 
     45 CA         29.7599   33.2567    4.6239 C.3       7 UNK         0.0276 
     46 CB         29.2239   34.6683    4.9147 C.3       7 UNK        -0.1927 
     47 C          30.3834   33.2012    3.2119 C.2       7 UNK         0.5013 
     48 O          31.5202   33.6434    3.0422 O.2       7 UNK        -0.5193 
     49 N          29.6420   32.6644    2.2332 N.am      8 UNK        -0.4253 
     50 CA         30.1100   32.4279    0.8650 C.3       8 UNK         0.0242 
     51 CB         28.8970   32.4274   -0.0806 C.3       8 UNK        -0.2000 
     52 C          30.9194   31.1245    0.7017 C.2       8 UNK         0.4948 
     53 O          31.5595   30.9577   -0.3374 O.2       8 UNK        -0.5275 
     54 N          30.8691   30.2194    1.6888 N.am      9 UNK        -0.4246 
     55 CA         31.5958   28.9497    1.7022 C.3       9 UNK         0.0261 
     56 CB         30.6847   27.8721    2.3155 C.3       9 UNK        -0.1959 
     57 C          32.9004   29.0924    2.5012 C.2       9 UNK         0.5033 
     58 O          33.0693   30.0493    3.2622 O.2       9 UNK        -0.5390 
     59 N          33.8085   28.1237    2.3329 N.am      10 UNK        -0.4215 
     60 CA         35.1209   28.0781    2.9846 C.3       10 UNK         0.0240 
     61 CB         36.0798   27.2379    2.1193 C.3       10 UNK        -0.1982 
     62 C          35.0312   27.5698    4.4376 C.2       10 UNK         0.4970 
     63 O          35.6863   26.5865    4.7876 O.2       10 UNK        -0.4916 
     64 N          34.2075   28.2360    5.2547 N.am      11 UNK        -0.4279 
     65 CA         33.9939   27.9156    6.6759 C.3       11 UNK         0.1003 
     66 C          35.1403   28.3785    7.6216 C.2       11 UNK         0.5709 
     67 N          36.0954   29.1839    7.1710 N.am      11 UNK        -0.7358 
     68 O          35.1689   27.9894    8.7869 O.2       11 UNK        -0.4999 
     69 C69        32.6146   28.4107    7.1915 C.3       12 UNK        -0.0954 
     70 S70        31.2061   27.8402    6.1843 S.3       12 UNK        -0.2268 
     71 C71        31.0743   26.0982    6.6873 C.3       12 UNK         0.0203 
     72 H72        30.0143   28.1442   -2.8859 H         1 UNK         0.0888 
     73 H73        29.9443   28.4312   -1.1482 H         1 UNK         0.0888 
     74 H74        31.4746   28.6109   -2.0088 H         1 UNK         0.0888 
     75 H75        29.8720   26.5692    0.0101 H         1 UNK         0.3017 
     76 H76        30.1842   24.6293    0.8880 H         1 UNK         0.0873 
     77 H77        32.0681   23.0424    0.2911 H         1 UNK         0.0745 
     78 H78        32.5409   24.1070   -0.9958 H         1 UNK         0.0745 
     79 H79        34.0585   24.1884    3.1464 H         1 UNK         0.0705 
     80 H80        33.2240   22.9234    2.2923 H         1 UNK         0.0705 
     81 H81        32.9647   25.5210    4.8212 H         1 UNK         0.1334 
     82 H82        28.9061   24.6625    5.8755 H         1 UNK         0.1417 
     83 H83        30.6520   22.8297    2.4125 H         1 UNK         0.1562 
     84 H84        27.8112   22.7088    4.7482 H         1 UNK         0.0748 
     85 H85        28.5235   22.0097    3.3212 H         1 UNK         0.0748 
     86 H86        26.8767   24.9516    4.9090 H         1 UNK         0.0940 
     87 H87        25.5512   25.3044    3.8496 H         1 UNK         0.0940 
     88 H88        28.3436   26.4440    3.3652 H         1 UNK         0.0703 
     89 H89        27.3721   27.1185    1.4487 H         1 UNK         0.3081 
     90 H90        24.2588   28.7140    0.7074 H         1 UNK         0.0719 
     91 H91        25.9404   30.0963   -0.4480 H         1 UNK         0.0809 
     92 H92        27.2527   29.3022    0.4150 H         1 UNK         0.0809 
     93 H93        26.0885   30.2827    1.2909 H         1 UNK         0.0809 
     94 H94        24.4507   27.2578   -0.9035 H         1 UNK         0.2990 
     95 H95        25.2626   25.2721   -1.9814 H         1 UNK         0.0690 
     96 H96        25.6768   26.1739   -4.3067 H         1 UNK         0.0788 
     97 H97        26.7028   27.4405   -3.6371 H         1 UNK         0.0788 
     98 H98        24.9812   27.4129   -3.2787 H         1 UNK         0.0788 
     99 H99        28.1399   25.4169   -2.0052 H         1 UNK         0.2993 
    100 H100       28.5206   22.1122   -2.8076 H         1 UNK         0.0949 
    101 H101       29.3757   24.1842   -4.9090 H         1 UNK         0.0767 
    102 H102       30.1427   22.6192   -4.6379 H         1 UNK         0.0767 
    103 H103       28.4940   22.6978   -5.2373 H         1 UNK         0.0767 
    104 H104       30.2979   24.4526   -2.6409 H         1 UNK         0.3013 
    105 H105       28.0476   29.0306    3.4281 H         1 UNK         0.3121 
    106 H106       27.8116   29.7511    6.2281 H         1 UNK         0.0774 
    107 H107       26.1999   31.6001    5.8352 H         1 UNK         0.0815 
    108 H108       26.0759   31.1845    4.1246 H         1 UNK         0.0815 
    109 H109       25.4503   30.0942    5.3546 H         1 UNK         0.0815 
    110 H110       27.8242   32.6461    5.2480 H         1 UNK         0.2987 
    111 H111       30.5702   33.0493    5.3263 H         1 UNK         0.0949 
    112 H112       28.8958   34.7646    5.9499 H         1 UNK         0.0806 
    113 H113       29.9962   35.4217    4.7523 H         1 UNK         0.0806 
    114 H114       28.3821   34.9207    4.2687 H         1 UNK         0.0806 
    115 H115       28.7151   32.3403    2.4654 H         1 UNK         0.3010 
    116 H116       30.7652   33.2507    0.5704 H         1 UNK         0.0829 
    117 H117       28.3579   33.3738   -0.0356 H         1 UNK         0.0813 
    118 H118       29.2079   32.2831   -1.1164 H         1 UNK         0.0813 
    119 H119       28.1964   31.6292    0.1621 H         1 UNK         0.0813 
    120 H120       30.4414   30.4746    2.5764 H         1 UNK         0.3038 
    121 H121       31.8509   28.6516    0.6836 H         1 UNK         0.0769 
    122 H122       29.7441   27.7967    1.7723 H         1 UNK         0.0811 
    123 H123       30.4531   28.0856    3.3579 H         1 UNK         0.0811 
    124 H124       31.1539   26.8896    2.2942 H         1 UNK         0.0811 
    125 H125       33.5749   27.3305    1.7485 H         1 UNK         0.3204 
    126 H126       35.5248   29.0920    3.0271 H         1 UNK         0.0748 
    127 H127       37.0873   27.2410    2.5374 H         1 UNK         0.0771 
    128 H128       35.7594   26.1976    2.0518 H         1 UNK         0.0771 
    129 H129       36.1509   27.6333    1.1059 H         1 UNK         0.0771 
    130 H130       33.6837   29.0191    4.8759 H         1 UNK         0.2980 
    131 H131       33.9904   26.8277    6.7569 H         1 UNK         0.0545 
    132 H132       36.8339   29.4708    7.7939 H         1 UNK         0.3459 
    133 H133       36.0803   29.5124    6.2192 H         1 UNK         0.3459 
    134 H134       32.4470   28.0915    8.2219 H         1 UNK         0.0616 
    135 H135       32.5891   29.5018    7.2032 H         1 UNK         0.0616 
    136 H136       30.2141   25.9906    7.3497 H         1 UNK         0.0634 
    137 H137       31.9457   25.7946    7.2680 H         1 UNK         0.0634 
@<TRIPOS>BOND
     1    1    2 1    
     2    1   72 1    
     3    1   73 1    
     4    1   74 1    
     5    2    3 2    
     6    2    4 am   BACKBONE|DICT|INTERRES
     7    4    5 1    
     8    4   75 1    
     9    5    6 1    
    10    5   35 1    
    11    5   76 1    
    12    6    7 1    
    13    6   77 1    
    14    6   78 1    
    15    7    8 1    
    16    8    9 1    
    17    8   79 1    
    18    8   80 1    
    19    9   10 ar   
    20    9   14 ar   
    21   10   11 ar   
    22   10   81 1    
    23   11   12 ar   
    24   11   71 1    
    25   12   13 ar   
    26   12   82 1    
    27   13   14 ar   
    28   13   15 1    
    29   14   83 1    
    30   15   16 1    
    31   15   84 1    
    32   15   85 1    
    33   16   17 1    
    34   17   18 1    
    35   17   86 1    
    36   17   87 1    
    37   18   19 1    
    38   18   37 1    
    39   18   88 1    
    40   19   20 am   BACKBONE|DICT|INTERRES
    41   19   89 1    
    42   20   21 2    
    43   20   22 1    
    44   22   23 1    
    45   22   24 1    
    46   22   90 1    
    47   23   91 1    
    48   23   92 1    
    49   23   93 1    
    50   24   25 am   BACKBONE|DICT|INTERRES
    51   24   94 1    
    52   25   26 2    
    53   25   27 1    
    54   27   28 1    
    55   27   29 1    
    56   27   95 1    
    57   28   96 1    
    58   28   97 1    
    59   28   98 1    
    60   29   30 am   BACKBONE|DICT|INTERRES
    61   29   99 1    
    62   30   31 2    
    63   30   32 1    
    64   32   33 1    
    65   32   34 1    
    66   32  100 1    
    67   33  101 1    
    68   33  102 1    
    69   33  103 1    
    70   34   35 am   BACKBONE|DICT|INTERRES
    71   34  104 1    
    72   35   36 2    
    73   37   38 2    
    74   37   39 am   BACKBONE|DICT|INTERRES
    75   39   40 1    
    76   39  105 1    
    77   40   41 1    
    78   40   42 1    
    79   40  106 1    
    80   41  107 1    
    81   41  108 1    
    82   41  109 1    
    83   42   43 2    
    84   42   44 am   BACKBONE|DICT|INTERRES
    85   44   45 1    
    86   44  110 1    
    87   45   46 1    
    88   45   47 1    
    89   45  111 1    
    90   46  112 1    
    91   46  113 1    
    92   46  114 1    
    93   47   48 2    
    94   47   49 am   BACKBONE|DICT|INTERRES
    95   49   50 1    
    96   49  115 1    
    97   50   51 1    
    98   50   52 1    
    99   50  116 1    
   100   51  117 1    
   101   51  118 1    
   102   51  119 1    
   103   52   53 2    
   104   52   54 am   BACKBONE|DICT|INTERRES
   105   54   55 1    
   106   54  120 1    
   107   55   56 1    
   108   55   57 1    
   109   55  121 1    
   110   56  122 1    
   111   56  123 1    
   112   56  124 1    
   113   57   58 2    
   114   57   59 am   BACKBONE|DICT|INTERRES
   115   59   60 1    
   116   59  125 1    
   117   60   61 1    
   118   60   62 1    
   119   60  126 1    
   120   61  127 1    
   121   61  128 1    
   122   61  129 1    
   123   62   63 2    
   124   62   64 am   BACKBONE|DICT|INTERRES
   125   64   65 1    
   126   64  130 1    
   127   65   66 1    
   128   65   69 1    
   129   65  131 1    
   130   66   67 am   BACKBONE|DICT|INTERRES
   131   66   68 2    
   132   67  132 1    
   133   67  133 1    
   134   69   70 1    
   135   69  134 1    
   136   69  135 1    
   137   70   71 1    
   138   71  136 1    
   139   71  137 1    
@<TRIPOS>SUBSTRUCTURE
     1 UNK         1 GROUP             0       ****    0 ROOT    
