@<TRIPOS>MOLECULE
3R136
137   139    1
SMALL
USER_CHARGES


@<TRIPOS>ATOM
      1 CA         29.5315   22.2718    4.6332 C.3       0 UNK        -0.1979 
      2 C          28.9499   21.6320    3.3834 C.2       0 UNK         0.4864 
      3 O          27.8277   21.1253    3.4177 O.2       0 UNK        -0.5359 
      4 N          29.7087   21.6521    2.2786 N.am      1 UNK        -0.4318 
      5 CA         29.3256   21.0706    0.9826 C.3       1 UNK         0.0824 
      6 C6         30.5203   20.9553   -0.0004 C.3       12 UNK        -0.0944 
      7 S7         31.9746   20.1117    0.7174 S.3       12 UNK        -0.2672 
      8 C8         33.2218   21.4426    0.7507 C.3       12 UNK         0.0333 
      9 C9         32.8792   22.5163    1.7737 C.ar      12 UNK        -0.0807 
     10 C10        33.2375   22.3544    3.1147 C.ar      12 UNK        -0.0894 
     11 C11        32.9040   23.3280    4.0623 C.ar      12 UNK        -0.0804 
     12 C12        32.1939   24.4654    3.6635 C.ar      12 UNK        -0.0824 
     13 C13        31.8363   24.6375    2.3229 C.ar      12 UNK        -0.0762 
     14 C14        32.1974   23.6705    1.3816 C.ar      12 UNK        -0.0782 
     15 C15        31.0298   25.8432    1.8766 C.3       12 UNK         0.0230 
     16 S16        32.1084   27.1490    1.2070 S.3       12 UNK        -0.2608 
     17 C17        31.0971   28.1018    0.0031 C.3       12 UNK        -0.0989 
     18 CA         29.5578   27.8760   -0.0151 C.3       5 UNK         0.0716 
     19 N          28.9148   28.0959    1.2864 N.am      5 UNK        -0.4135 
     20 C          28.7354   29.2659    1.9199 C.2       4 UNK         0.5031 
     21 O          29.1780   30.3430    1.5123 O.2       4 UNK        -0.5229 
     22 CA         27.8563   29.2276    3.1901 C.3       4 UNK         0.0329 
     23 CB         27.1630   30.5770    3.4607 C.3       4 UNK        -0.2001 
     24 N          26.8681   28.1374    3.1998 N.am      4 UNK        -0.4303 
     25 C          25.9382   27.8753    2.2686 C.2       3 UNK         0.5044 
     26 O          25.7610   28.5486    1.2515 O.2       3 UNK        -0.5152 
     27 CA         25.1347   26.5793    2.4623 C.3       3 UNK         0.0319 
     28 CB         23.6234   26.8482    2.3676 C.3       3 UNK        -0.2001 
     29 N          25.5068   25.5534    1.4812 N.am      3 UNK        -0.4354 
     30 C          26.7395   25.0617    1.2926 C.2       2 UNK         0.4964 
     31 O          27.7416   25.4424    1.9068 O.2       2 UNK        -0.5047 
     32 CA         26.8898   23.9726    0.2263 C.3       2 UNK         0.0288 
     33 CB         27.1635   24.5802   -1.1615 C.3       2 UNK        -0.2113 
     34 N          27.9959   23.1118    0.6289 N.am      2 UNK        -0.4145 
     35 C          28.1514   21.8204    0.3122 C.2       1 UNK         0.5006 
     36 O          27.4110   21.2141   -0.4644 O.2       1 UNK        -0.5103 
     37 C          28.8527   28.6441   -1.1606 C.2       5 UNK         0.5055 
     38 O          29.5087   29.0239   -2.1320 O.2       5 UNK        -0.5220 
     39 N          27.5327   28.8645   -1.0242 N.am      6 UNK        -0.4450 
     40 CA         26.6665   29.6602   -1.9035 C.3       6 UNK         0.0367 
     41 CB         26.5483   29.0176   -3.3022 C.3       6 UNK        -0.1929 
     42 C          27.0550   31.1537   -1.9558 C.2       6 UNK         0.5070 
     43 O          26.7541   31.8300   -2.9411 O.2       6 UNK        -0.5237 
     44 N          27.7069   31.6450   -0.8957 N.am      7 UNK        -0.4739 
     45 CA         28.1660   33.0193   -0.7374 C.3       7 UNK         0.0276 
     46 CB         29.6157   33.1356   -1.2574 C.3       7 UNK        -0.1927 
     47 C          27.9741   33.4105    0.7354 C.2       7 UNK         0.5013 
     48 O          26.8424   33.3689    1.2215 O.2       7 UNK        -0.5193 
     49 N          29.0643   33.7712    1.4199 N.am      8 UNK        -0.4253 
     50 CA         29.1010   34.1098    2.8424 C.3       8 UNK         0.0242 
     51 CB         28.9793   35.6371    3.0139 C.3       8 UNK        -0.2000 
     52 C          30.3689   33.5282    3.4917 C.2       8 UNK         0.4948 
     53 O          30.9647   34.1754    4.3553 O.2       8 UNK        -0.5275 
     54 N          30.7858   32.3350    3.0452 N.am      9 UNK        -0.4246 
     55 CA         31.9688   31.6361    3.5484 C.3       9 UNK         0.0261 
     56 CB         32.5036   30.7146    2.4427 C.3       9 UNK        -0.1959 
     57 C          31.6403   30.8170    4.8061 C.2       9 UNK         0.5033 
     58 O          30.4734   30.5088    5.0602 O.2       9 UNK        -0.5390 
     59 N          32.6899   30.4410    5.5440 N.am      10 UNK        -0.4215 
     60 CA         32.6166   29.6045    6.7410 C.3       10 UNK         0.0240 
     61 CB         32.6913   30.4956    7.9973 C.3       10 UNK        -0.1982 
     62 C          33.7165   28.5336    6.6870 C.2       10 UNK         0.4970 
     63 O          34.5453   28.4587    7.5957 O.2       10 UNK        -0.4916 
     64 N          33.7106   27.7339    5.6093 N.am      11 UNK        -0.4279 
     65 CA         34.6526   26.6237    5.3659 C.3       11 UNK         0.1003 
     66 C          36.1210   27.0770    5.0849 C.2       11 UNK         0.5709 
     67 N          36.3448   28.2957    4.6056 N.am      11 UNK        -0.7358 
     68 O          37.0711   26.3231    5.2801 O.2       11 UNK        -0.4999 
     69 C69        34.5231   25.5152    6.4549 C.3       12 UNK        -0.0954 
     70 S70        34.9327   23.8346    5.8709 S.3       12 UNK        -0.2268 
     71 C71        33.2929   23.1280    5.5187 C.3       12 UNK         0.0203 
     72 H72        30.5301   21.8854    4.8335 H         1 UNK         0.0888 
     73 H73        29.5893   23.3535    4.5150 H         1 UNK         0.0888 
     74 H74        28.9094   22.0584    5.5022 H         1 UNK         0.0888 
     75 H75        30.6382   22.0505    2.3186 H         1 UNK         0.3017 
     76 H76        28.9704   20.0577    1.1851 H         1 UNK         0.0873 
     77 H77        30.8112   21.9353   -0.3790 H         1 UNK         0.0745 
     78 H78        30.2186   20.3834   -0.8802 H         1 UNK         0.0745 
     79 H79        33.3222   21.8756   -0.2459 H         1 UNK         0.0705 
     80 H80        34.1931   21.0070    0.9900 H         1 UNK         0.0705 
     81 H81        33.7728   21.4660    3.4221 H         1 UNK         0.1334 
     82 H82        31.9178   25.2115    4.3960 H         1 UNK         0.1417 
     83 H83        31.9316   23.8148    0.3432 H         1 UNK         0.1562 
     84 H84        30.4417   26.2398    2.7054 H         1 UNK         0.0748 
     85 H85        30.3237   25.5010    1.1232 H         1 UNK         0.0748 
     86 H86        31.5089   27.8600   -0.9785 H         1 UNK         0.0940 
     87 H87        31.3109   29.1619    0.1434 H         1 UNK         0.0940 
     88 H88        29.3791   26.8338   -0.2697 H         1 UNK         0.0703 
     89 H89        28.4891   27.2694    1.6959 H         1 UNK         0.3081 
     90 H90        28.5347   29.0279    4.0199 H         1 UNK         0.0719 
     91 H91        26.5348   30.5318    4.3501 H         1 UNK         0.0809 
     92 H92        26.5395   30.8880    2.6215 H         1 UNK         0.0809 
     93 H93        27.9014   31.3595    3.6302 H         1 UNK         0.0809 
     94 H94        26.9570   27.4849    3.9670 H         1 UNK         0.2990 
     95 H95        25.3443   26.1783    3.4562 H         1 UNK         0.0690 
     96 H96        23.0449   25.9487    2.5791 H         1 UNK         0.0788 
     97 H97        23.3374   27.2070    1.3778 H         1 UNK         0.0788 
     98 H98        23.3165   27.6064    3.0894 H         1 UNK         0.0788 
     99 H99        24.7562   25.2038    0.9030 H         1 UNK         0.2993 
    100 H100       25.9692   23.3852    0.1966 H         1 UNK         0.0949 
    101 H101       28.1170   25.1062   -1.1920 H         1 UNK         0.0767 
    102 H102       27.1883   23.8077   -1.9303 H         1 UNK         0.0767 
    103 H103       26.3855   25.2913   -1.4428 H         1 UNK         0.0767 
    104 H104       28.6101   23.5272    1.3177 H         1 UNK         0.3013 
    105 H105       27.0750   28.5548   -0.1700 H         1 UNK         0.3121 
    106 H106       25.6761   29.6301   -1.4467 H         1 UNK         0.0774 
    107 H107       25.7814   29.5154   -3.8967 H         1 UNK         0.0815 
    108 H108       27.4826   29.0842   -3.8601 H         1 UNK         0.0815 
    109 H109       26.2708   27.9658   -3.2337 H         1 UNK         0.0815 
    110 H110       27.9092   31.0319   -0.1133 H         1 UNK         0.2987 
    111 H111       27.5319   33.6917   -1.3194 H         1 UNK         0.0949 
    112 H112       29.6692   32.8783   -2.3156 H         1 UNK         0.0806 
    113 H113       29.9946   34.1540   -1.1616 H         1 UNK         0.0806 
    114 H114       30.2945   32.4659   -0.7268 H         1 UNK         0.0806 
    115 H115       29.9572   33.7567    0.9464 H         1 UNK         0.3010 
    116 H116       28.2564   33.6453    3.3544 H         1 UNK         0.0829 
    117 H117       28.0609   36.0141    2.5637 H         1 UNK         0.0813 
    118 H118       28.9571   35.9141    4.0687 H         1 UNK         0.0813 
    119 H119       29.8182   36.1607    2.5540 H         1 UNK         0.0813 
    120 H120       30.1946   31.8090    2.4068 H         1 UNK         0.3038 
    121 H121       32.7405   32.3688    3.7954 H         1 UNK         0.0769 
    122 H122       31.8074   29.9008    2.2480 H         1 UNK         0.0811 
    123 H123       32.6619   31.2547    1.5091 H         1 UNK         0.0811 
    124 H124       33.4567   30.2652    2.7232 H         1 UNK         0.0811 
    125 H125       33.6169   30.7285    5.2603 H         1 UNK         0.3204 
    126 H126       31.6677   29.0637    6.7677 H         1 UNK         0.0748 
    127 H127       32.6268   29.8972    8.9072 H         1 UNK         0.0771 
    128 H128       33.6249   31.0582    8.0390 H         1 UNK         0.0771 
    129 H129       31.8686   31.2106    8.0228 H         1 UNK         0.0771 
    130 H130       33.0132   27.8859    4.8953 H         1 UNK         0.2980 
    131 H131       34.3235   26.1917    4.4210 H         1 UNK         0.0545 
    132 H132       37.2926   28.5836    4.4203 H         1 UNK         0.3459 
    133 H133       35.5811   28.9220    4.4163 H         1 UNK         0.3459 
    134 H134       35.1593   25.7448    7.3113 H         1 UNK         0.0616 
    135 H135       33.5079   25.4945    6.8526 H         1 UNK         0.0616 
    136 H136       32.5362   23.5501    6.1812 H         1 UNK         0.0634 
    137 H137       33.3233   22.0612    5.7456 H         1 UNK         0.0634 
@<TRIPOS>BOND
     1    1    2 1    
     2    1   72 1    
     3    1   73 1    
     4    1   74 1    
     5    2    3 2    
     6    2    4 am   BACKBONE|DICT|INTERRES
     7    4    5 1    
     8    4   75 1    
     9    5    6 1    
    10    5   35 1    
    11    5   76 1    
    12    6    7 1    
    13    6   77 1    
    14    6   78 1    
    15    7    8 1    
    16    8    9 1    
    17    8   79 1    
    18    8   80 1    
    19    9   10 ar   
    20    9   14 ar   
    21   10   11 ar   
    22   10   81 1    
    23   11   12 ar   
    24   11   71 1    
    25   12   13 ar   
    26   12   82 1    
    27   13   14 ar   
    28   13   15 1    
    29   14   83 1    
    30   15   16 1    
    31   15   84 1    
    32   15   85 1    
    33   16   17 1    
    34   17   18 1    
    35   17   86 1    
    36   17   87 1    
    37   18   19 1    
    38   18   37 1    
    39   18   88 1    
    40   19   20 am   BACKBONE|DICT|INTERRES
    41   19   89 1    
    42   20   21 2    
    43   20   22 1    
    44   22   23 1    
    45   22   24 1    
    46   22   90 1    
    47   23   91 1    
    48   23   92 1    
    49   23   93 1    
    50   24   25 am   BACKBONE|DICT|INTERRES
    51   24   94 1    
    52   25   26 2    
    53   25   27 1    
    54   27   28 1    
    55   27   29 1    
    56   27   95 1    
    57   28   96 1    
    58   28   97 1    
    59   28   98 1    
    60   29   30 am   BACKBONE|DICT|INTERRES
    61   29   99 1    
    62   30   31 2    
    63   30   32 1    
    64   32   33 1    
    65   32   34 1    
    66   32  100 1    
    67   33  101 1    
    68   33  102 1    
    69   33  103 1    
    70   34   35 am   BACKBONE|DICT|INTERRES
    71   34  104 1    
    72   35   36 2    
    73   37   38 2    
    74   37   39 am   BACKBONE|DICT|INTERRES
    75   39   40 1    
    76   39  105 1    
    77   40   41 1    
    78   40   42 1    
    79   40  106 1    
    80   41  107 1    
    81   41  108 1    
    82   41  109 1    
    83   42   43 2    
    84   42   44 am   BACKBONE|DICT|INTERRES
    85   44   45 1    
    86   44  110 1    
    87   45   46 1    
    88   45   47 1    
    89   45  111 1    
    90   46  112 1    
    91   46  113 1    
    92   46  114 1    
    93   47   48 2    
    94   47   49 am   BACKBONE|DICT|INTERRES
    95   49   50 1    
    96   49  115 1    
    97   50   51 1    
    98   50   52 1    
    99   50  116 1    
   100   51  117 1    
   101   51  118 1    
   102   51  119 1    
   103   52   53 2    
   104   52   54 am   BACKBONE|DICT|INTERRES
   105   54   55 1    
   106   54  120 1    
   107   55   56 1    
   108   55   57 1    
   109   55  121 1    
   110   56  122 1    
   111   56  123 1    
   112   56  124 1    
   113   57   58 2    
   114   57   59 am   BACKBONE|DICT|INTERRES
   115   59   60 1    
   116   59  125 1    
   117   60   61 1    
   118   60   62 1    
   119   60  126 1    
   120   61  127 1    
   121   61  128 1    
   122   61  129 1    
   123   62   63 2    
   124   62   64 am   BACKBONE|DICT|INTERRES
   125   64   65 1    
   126   64  130 1    
   127   65   66 1    
   128   65   69 1    
   129   65  131 1    
   130   66   67 am   BACKBONE|DICT|INTERRES
   131   66   68 2    
   132   67  132 1    
   133   67  133 1    
   134   69   70 1    
   135   69  134 1    
   136   69  135 1    
   137   70   71 1    
   138   71  136 1    
   139   71  137 1    
@<TRIPOS>SUBSTRUCTURE
     1 UNK         1 GROUP             0       ****    0 ROOT    
