@<TRIPOS>MOLECULE
3R136
137   139    1
SMALL
USER_CHARGES


@<TRIPOS>ATOM
      1 CA         31.3603   19.1677   -0.8335 C.3       0 UNK        -0.1979 
      2 C          30.6946   20.4758   -1.2340 C.2       0 UNK         0.4864 
      3 O          30.4990   20.7231   -2.4245 O.2       0 UNK        -0.5359 
      4 N          30.3436   21.3139   -0.2491 N.am      1 UNK        -0.4318 
      5 CA         29.6838   22.6121   -0.4418 C.3       1 UNK         0.0824 
      6 C6         29.8806   23.5387    0.7850 C.3       12 UNK        -0.0944 
      7 S7         29.2726   22.8383    2.3617 S.3       12 UNK        -0.2672 
      8 C8         27.9854   24.0485    2.8262 C.3       12 UNK         0.0333 
      9 C9         28.4697   25.3816    3.4031 C.ar      12 UNK        -0.0807 
     10 C10        29.8205   25.7533    3.4570 C.ar      12 UNK        -0.0894 
     11 C11        30.2000   27.0005    3.9611 C.ar      12 UNK        -0.0804 
     12 C12        29.2222   27.8852    4.4223 C.ar      12 UNK        -0.0824 
     13 C13        27.8718   27.5308    4.3787 C.ar      12 UNK        -0.0762 
     14 C14        27.5055   26.2782    3.8764 C.ar      12 UNK        -0.0782 
     15 C15        26.8059   28.5150    4.8394 C.3       12 UNK         0.0230 
     16 S16        25.7594   29.0806    3.4583 S.3       12 UNK        -0.2608 
     17 C17        26.9606   29.9426    2.3826 C.3       12 UNK        -0.0989 
     18 CA         27.5888   29.0225    1.2997 C.3       5 UNK         0.0716 
     19 N          26.5743   28.2826    0.5384 N.am      5 UNK        -0.4135 
     20 C          26.7724   27.0940   -0.0416 C.2       4 UNK         0.5031 
     21 O          27.8669   26.5276   -0.0724 O.2       4 UNK        -0.5229 
     22 CA         25.5652   26.4378   -0.7194 C.3       4 UNK         0.0329 
     23 CB         25.7924   26.3066   -2.2345 C.3       4 UNK        -0.2001 
     24 N          25.3669   25.1116   -0.1381 N.am      4 UNK        -0.4303 
     25 C          24.5609   24.8595    0.9038 C.2       3 UNK         0.5044 
     26 O          23.8525   25.7216    1.4257 O.2       3 UNK        -0.5152 
     27 CA         24.5495   23.4368    1.5073 C.3       3 UNK         0.0319 
     28 CB         23.1139   22.9260    1.7560 C.3       3 UNK        -0.2001 
     29 N          25.3497   22.4414    0.7796 N.am      3 UNK        -0.4354 
     30 C          25.1286   21.9420   -0.4460 C.2       2 UNK         0.4964 
     31 O          24.1614   22.2404   -1.1483 O.2       2 UNK        -0.5047 
     32 CA         26.1974   20.9625   -0.9761 C.3       2 UNK         0.0288 
     33 CB         26.1022   20.7471   -2.5020 C.3       2 UNK        -0.2113 
     34 N          27.5728   21.3306   -0.6025 N.am      2 UNK        -0.4145 
     35 C          28.1987   22.4938   -0.8556 C.2       1 UNK         0.5006 
     36 O          27.6497   23.4562   -1.3923 O.2       1 UNK        -0.5103 
     37 C          28.5648   29.7715    0.3652 C.2       5 UNK         0.5055 
     38 O          28.7248   30.9879    0.4762 O.2       5 UNK        -0.5220 
     39 N          29.1907   29.0292   -0.5573 N.am      6 UNK        -0.4450 
     40 CA         30.0901   29.5382   -1.5966 C.3       6 UNK         0.0367 
     41 CB         30.3402   28.4244   -2.6263 C.3       6 UNK        -0.1929 
     42 C          31.4261   30.0832   -1.0608 C.2       6 UNK         0.5070 
     43 O          32.0333   30.9311   -1.7150 O.2       6 UNK        -0.5237 
     44 N          31.8574   29.5933    0.1077 N.am      7 UNK        -0.4739 
     45 CA         33.0977   29.9798    0.7828 C.3       7 UNK         0.0276 
     46 CB         34.0669   28.7820    0.7826 C.3       7 UNK        -0.1927 
     47 C          32.8005   30.4937    2.1996 C.2       7 UNK         0.5013 
     48 O          33.5420   30.1784    3.1319 O.2       7 UNK        -0.5193 
     49 N          31.7127   31.2661    2.3528 N.am      8 UNK        -0.4253 
     50 CA         31.1948   31.7834    3.6293 C.3       8 UNK         0.0242 
     51 CB         30.0036   32.7160    3.3591 C.3       8 UNK        -0.2000 
     52 C          32.2307   32.5023    4.5130 C.2       8 UNK         0.4948 
     53 O          32.1675   32.3774    5.7354 O.2       8 UNK        -0.5275 
     54 N          33.1877   33.1975    3.8832 N.am      9 UNK        -0.4246 
     55 CA         34.3154   33.8584    4.5444 C.3       9 UNK         0.0261 
     56 CB         35.0567   34.7336    3.5205 C.3       9 UNK        -0.1959 
     57 C          35.2975   32.8905    5.2342 C.2       9 UNK         0.5033 
     58 O          35.9667   33.3055    6.1818 O.2       9 UNK        -0.5390 
     59 N          35.3780   31.6376    4.7615 N.am      10 UNK        -0.4215 
     60 CA         36.1958   30.5850    5.3643 C.3       10 UNK         0.0240 
     61 CB         36.6338   29.5765    4.2882 C.3       10 UNK        -0.1982 
     62 C          35.4434   29.8789    6.5012 C.2       10 UNK         0.4970 
     63 O          36.0425   29.6298    7.5484 O.2       10 UNK        -0.4916 
     64 N          34.1580   29.5673    6.2808 N.am      11 UNK        -0.4279 
     65 CA         33.2947   28.9143    7.2798 C.3       11 UNK         0.1003 
     66 C          32.8826   29.8388    8.4590 C.2       11 UNK         0.5709 
     67 N          32.7073   31.1376    8.2519 N.am      11 UNK        -0.7358 
     68 O          32.7291   29.3682    9.5837 O.2       11 UNK        -0.4999 
     69 C69        32.0511   28.2453    6.6422 C.3       12 UNK        -0.0954 
     70 S70        32.5063   26.8976    5.4987 S.3       12 UNK        -0.2268 
     71 C71        31.6658   27.4020    3.9694 C.3       12 UNK         0.0203 
     72 H72        31.4702   19.0800    0.2473 H         1 UNK         0.0888 
     73 H73        32.3514   19.0990   -1.2812 H         1 UNK         0.0888 
     74 H74        30.7685   18.3226   -1.1839 H         1 UNK         0.0888 
     75 H75        30.5324   21.0660    0.7127 H         1 UNK         0.3017 
     76 H76        30.1800   23.1000   -1.2839 H         1 UNK         0.0873 
     77 H77        29.4198   24.5114    0.6053 H         1 UNK         0.0745 
     78 H78        30.9443   23.7473    0.9088 H         1 UNK         0.0745 
     79 H79        27.3759   24.2566    1.9471 H         1 UNK         0.0705 
     80 H80        27.3316   23.5715    3.5577 H         1 UNK         0.0705 
     81 H81        30.5905   25.0858    3.0997 H         1 UNK         0.1334 
     82 H82        29.5094   28.8564    4.7992 H         1 UNK         0.1417 
     83 H83        26.4572   26.0144    3.8300 H         1 UNK         0.1562 
     84 H84        27.2540   29.3810    5.3291 H         1 UNK         0.0748 
     85 H85        26.1743   28.0331    5.5870 H         1 UNK         0.0748 
     86 H86        27.7393   30.3800    3.0086 H         1 UNK         0.0940 
     87 H87        26.4421   30.7819    1.9150 H         1 UNK         0.0940 
     88 H88        28.2053   28.2893    1.8197 H         1 UNK         0.0703 
     89 H89        25.6525   28.6937    0.5167 H         1 UNK         0.3081 
     90 H90        24.6770   27.0543   -0.5647 H         1 UNK         0.0719 
     91 H91        26.6872   25.7261   -2.4630 H         1 UNK         0.0809 
     92 H92        24.9467   25.8201   -2.7206 H         1 UNK         0.0809 
     93 H93        25.9146   27.2870   -2.6964 H         1 UNK         0.0809 
     94 H94        25.9766   24.3812   -0.4905 H         1 UNK         0.2990 
     95 H95        25.0223   23.5330    2.4851 H         1 UNK         0.0690 
     96 H96        23.1172   21.9321    2.2033 H         1 UNK         0.0788 
     97 H97        22.5325   22.8789    0.8350 H         1 UNK         0.0788 
     98 H98        22.5775   23.5844    2.4405 H         1 UNK         0.0788 
     99 H99        26.1824   22.1249    1.2568 H         1 UNK         0.2993 
    100 H100       25.9907   20.0052   -0.4949 H         1 UNK         0.0949 
    101 H101       25.1253   20.3519   -2.7836 H         1 UNK         0.0767 
    102 H102       26.2477   21.6788   -3.0503 H         1 UNK         0.0767 
    103 H103       26.8508   20.0347   -2.8490 H         1 UNK         0.0767 
    104 H104       28.1087   20.6119   -0.1364 H         1 UNK         0.3013 
    105 H105       28.9793   28.0338   -0.5689 H         1 UNK         0.3121 
    106 H106       29.5827   30.3632   -2.1014 H         1 UNK         0.0774 
    107 H107       29.4083   28.0859   -3.0798 H         1 UNK         0.0815 
    108 H108       30.8273   27.5593   -2.1744 H         1 UNK         0.0815 
    109 H109       30.9834   28.7761   -3.4343 H         1 UNK         0.0815 
    110 H110       31.2806   28.9106    0.5789 H         1 UNK         0.2987 
    111 H111       33.5819   30.8048    0.2561 H         1 UNK         0.0949 
    112 H112       33.6666   27.9378    1.3445 H         1 UNK         0.0806 
    113 H113       34.2743   28.4415   -0.2318 H         1 UNK         0.0806 
    114 H114       35.0235   29.0502    1.2333 H         1 UNK         0.0806 
    115 H115       31.1561   31.4621    1.5314 H         1 UNK         0.3010 
    116 H116       30.8336   30.9240    4.1968 H         1 UNK         0.0829 
    117 H117       29.2082   32.2062    2.8184 H         1 UNK         0.0813 
    118 H118       29.5737   33.0821    4.2927 H         1 UNK         0.0813 
    119 H119       30.2983   33.5868    2.7721 H         1 UNK         0.0813 
    120 H120       33.1582   33.2436    2.8751 H         1 UNK         0.3038 
    121 H121       33.9073   34.5108    5.3194 H         1 UNK         0.0769 
    122 H122       35.4710   34.1391    2.7052 H         1 UNK         0.0811 
    123 H123       35.8862   35.2650    3.9897 H         1 UNK         0.0811 
    124 H124       34.3969   35.4861    3.0882 H         1 UNK         0.0811 
    125 H125       34.7526   31.3451    4.0150 H         1 UNK         0.3204 
    126 H126       37.0997   31.0314    5.7850 H         1 UNK         0.0748 
    127 H127       37.1667   30.0701    3.4754 H         1 UNK         0.0771 
    128 H128       37.3066   28.8289    4.7103 H         1 UNK         0.0771 
    129 H129       35.7873   29.0412    3.8573 H         1 UNK         0.0771 
    130 H130       33.7421   29.7849    5.3852 H         1 UNK         0.2980 
    131 H131       33.8835   28.1117    7.7292 H         1 UNK         0.0545 
    132 H132       32.4486   31.7253    9.0275 H         1 UNK         0.3459 
    133 H133       32.7291   31.5285    7.3136 H         1 UNK         0.3459 
    134 H134       31.4093   27.8099    7.4105 H         1 UNK         0.0616 
    135 H135       31.4473   28.9948    6.1295 H         1 UNK         0.0616 
    136 H136       32.1803   26.9512    3.1199 H         1 UNK         0.0634 
    137 H137       31.7536   28.4782    3.8454 H         1 UNK         0.0634 
@<TRIPOS>BOND
     1    1    2 1    
     2    1   72 1    
     3    1   73 1    
     4    1   74 1    
     5    2    3 2    
     6    2    4 am   BACKBONE|DICT|INTERRES
     7    4    5 1    
     8    4   75 1    
     9    5    6 1    
    10    5   35 1    
    11    5   76 1    
    12    6    7 1    
    13    6   77 1    
    14    6   78 1    
    15    7    8 1    
    16    8    9 1    
    17    8   79 1    
    18    8   80 1    
    19    9   10 ar   
    20    9   14 ar   
    21   10   11 ar   
    22   10   81 1    
    23   11   12 ar   
    24   11   71 1    
    25   12   13 ar   
    26   12   82 1    
    27   13   14 ar   
    28   13   15 1    
    29   14   83 1    
    30   15   16 1    
    31   15   84 1    
    32   15   85 1    
    33   16   17 1    
    34   17   18 1    
    35   17   86 1    
    36   17   87 1    
    37   18   19 1    
    38   18   37 1    
    39   18   88 1    
    40   19   20 am   BACKBONE|DICT|INTERRES
    41   19   89 1    
    42   20   21 2    
    43   20   22 1    
    44   22   23 1    
    45   22   24 1    
    46   22   90 1    
    47   23   91 1    
    48   23   92 1    
    49   23   93 1    
    50   24   25 am   BACKBONE|DICT|INTERRES
    51   24   94 1    
    52   25   26 2    
    53   25   27 1    
    54   27   28 1    
    55   27   29 1    
    56   27   95 1    
    57   28   96 1    
    58   28   97 1    
    59   28   98 1    
    60   29   30 am   BACKBONE|DICT|INTERRES
    61   29   99 1    
    62   30   31 2    
    63   30   32 1    
    64   32   33 1    
    65   32   34 1    
    66   32  100 1    
    67   33  101 1    
    68   33  102 1    
    69   33  103 1    
    70   34   35 am   BACKBONE|DICT|INTERRES
    71   34  104 1    
    72   35   36 2    
    73   37   38 2    
    74   37   39 am   BACKBONE|DICT|INTERRES
    75   39   40 1    
    76   39  105 1    
    77   40   41 1    
    78   40   42 1    
    79   40  106 1    
    80   41  107 1    
    81   41  108 1    
    82   41  109 1    
    83   42   43 2    
    84   42   44 am   BACKBONE|DICT|INTERRES
    85   44   45 1    
    86   44  110 1    
    87   45   46 1    
    88   45   47 1    
    89   45  111 1    
    90   46  112 1    
    91   46  113 1    
    92   46  114 1    
    93   47   48 2    
    94   47   49 am   BACKBONE|DICT|INTERRES
    95   49   50 1    
    96   49  115 1    
    97   50   51 1    
    98   50   52 1    
    99   50  116 1    
   100   51  117 1    
   101   51  118 1    
   102   51  119 1    
   103   52   53 2    
   104   52   54 am   BACKBONE|DICT|INTERRES
   105   54   55 1    
   106   54  120 1    
   107   55   56 1    
   108   55   57 1    
   109   55  121 1    
   110   56  122 1    
   111   56  123 1    
   112   56  124 1    
   113   57   58 2    
   114   57   59 am   BACKBONE|DICT|INTERRES
   115   59   60 1    
   116   59  125 1    
   117   60   61 1    
   118   60   62 1    
   119   60  126 1    
   120   61  127 1    
   121   61  128 1    
   122   61  129 1    
   123   62   63 2    
   124   62   64 am   BACKBONE|DICT|INTERRES
   125   64   65 1    
   126   64  130 1    
   127   65   66 1    
   128   65   69 1    
   129   65  131 1    
   130   66   67 am   BACKBONE|DICT|INTERRES
   131   66   68 2    
   132   67  132 1    
   133   67  133 1    
   134   69   70 1    
   135   69  134 1    
   136   69  135 1    
   137   70   71 1    
   138   71  136 1    
   139   71  137 1    
@<TRIPOS>SUBSTRUCTURE
     1 UNK         1 GROUP             0       ****    0 ROOT    
