@<TRIPOS>MOLECULE
3R136
137   139    1
SMALL
USER_CHARGES


@<TRIPOS>ATOM
      1 CA         26.7844   21.7604    1.6098 C.3       0 UNK        -0.1979 
      2 C          27.8697   22.3089    0.6976 C.2       0 UNK         0.4864 
      3 O          27.9918   23.5279    0.5661 O.2       0 UNK        -0.5359 
      4 N          28.6300   21.4002    0.0661 N.am      1 UNK        -0.4318 
      5 CA         29.6947   21.6263   -0.9246 C.3       1 UNK         0.0824 
      6 C6         31.0834   21.9697   -0.3001 C.3       12 UNK        -0.0944 
      7 S7         31.2076   23.5957    0.5324 S.3       12 UNK        -0.2672 
      8 C8         31.5134   23.1084    2.2610 C.3       12 UNK         0.0333 
      9 C9         30.7929   24.0153    3.2483 C.ar      12 UNK        -0.0807 
     10 C10        31.3014   25.2814    3.5537 C.ar      12 UNK        -0.0894 
     11 C11        30.6681   26.0899    4.5043 C.ar      12 UNK        -0.0804 
     12 C12        29.5168   25.6246    5.1478 C.ar      12 UNK        -0.0824 
     13 C13        28.9840   24.3710    4.8306 C.ar      12 UNK        -0.0762 
     14 C14        29.6302   23.5706    3.8845 C.ar      12 UNK        -0.0782 
     15 C15        27.7132   23.8739    5.5064 C.3       12 UNK         0.0230 
     16 S16        26.2782   23.9335    4.3832 S.3       12 UNK        -0.2608 
     17 C17        25.8947   25.7156    4.3420 C.3       12 UNK        -0.0989 
     18 CA         26.6546   26.4847    3.2264 C.3       5 UNK         0.0716 
     19 N          26.4454   25.9443    1.8810 N.am      5 UNK        -0.4135 
     20 C          25.3572   26.0496    1.1067 C.2       4 UNK         0.5031 
     21 O          24.2909   26.5463    1.4735 O.2       4 UNK        -0.5229 
     22 CA         25.5331   25.5548   -0.3472 C.3       4 UNK         0.0329 
     23 CB         24.4824   26.1355   -1.3168 C.3       4 UNK        -0.2001 
     24 N          26.9004   25.7887   -0.8413 N.am      4 UNK        -0.4303 
     25 C          27.5269   26.9740   -0.9240 C.2       3 UNK         0.5044 
     26 O          26.9718   28.0561   -0.7460 O.2       3 UNK        -0.5152 
     27 CA         29.0473   26.9590   -1.1383 C.3       3 UNK         0.0319 
     28 CB         29.7579   27.0354    0.2242 C.3       3 UNK        -0.2001 
     29 N          29.5255   25.7787   -1.8544 N.am      3 UNK        -0.4354 
     30 C          29.3575   25.5577   -3.1668 C.2       2 UNK         0.4964 
     31 O          28.7765   26.3369   -3.9228 O.2       2 UNK        -0.5047 
     32 CA         29.9490   24.2568   -3.7413 C.3       2 UNK         0.0288 
     33 CB         31.2581   24.5466   -4.4942 C.3       2 UNK        -0.2113 
     34 N          30.2062   23.2509   -2.7081 N.am      2 UNK        -0.4145 
     35 C          29.2545   22.5253   -2.1060 C.2       1 UNK         0.5006 
     36 O          28.0738   22.5352   -2.4659 O.2       1 UNK        -0.5103 
     37 C          26.4784   28.0192    3.3366 C.2       5 UNK         0.5055 
     38 O          26.1152   28.5073    4.4094 O.2       5 UNK        -0.5220 
     39 N          26.7560   28.7715    2.2591 N.am      6 UNK        -0.4450 
     40 CA         26.7886   30.2363    2.2834 C.3       6 UNK         0.0367 
     41 CB         26.8638   30.7832    0.8495 C.3       6 UNK        -0.1929 
     42 C          27.9780   30.7549    3.1076 C.2       6 UNK         0.5070 
     43 O          29.0914   30.2456    2.9639 O.2       6 UNK        -0.5237 
     44 N          27.7323   31.7982    3.9108 N.am      7 UNK        -0.4739 
     45 CA         28.7146   32.4375    4.7977 C.3       7 UNK         0.0276 
     46 CB         27.9767   33.3976    5.7460 C.3       7 UNK        -0.1927 
     47 C          29.8604   33.1688    4.0704 C.2       7 UNK         0.5013 
     48 O          30.8426   33.5380    4.7147 O.2       7 UNK        -0.5193 
     49 N          29.7212   33.3663    2.7521 N.am      8 UNK        -0.4253 
     50 CA         30.7529   33.9065    1.8665 C.3       8 UNK         0.0242 
     51 CB         30.1199   34.2464    0.5071 C.3       8 UNK        -0.2000 
     52 C          31.9539   32.9597    1.6790 C.2       8 UNK         0.4948 
     53 O          33.0446   33.4409    1.3678 O.2       8 UNK        -0.5275 
     54 N          31.7486   31.6465    1.8615 N.am      9 UNK        -0.4246 
     55 CA         32.8115   30.6440    1.8322 C.3       9 UNK         0.0261 
     56 CB         32.2118   29.2757    1.4776 C.3       9 UNK        -0.1959 
     57 C          33.5308   30.6100    3.1885 C.2       9 UNK         0.5033 
     58 O          32.8756   30.4883    4.2259 O.2       9 UNK        -0.5390 
     59 N          34.8648   30.7088    3.1621 N.am      10 UNK        -0.4215 
     60 CA         35.7298   30.7918    4.3422 C.3       10 UNK         0.0240 
     61 CB         37.0327   31.5155    3.9502 C.3       10 UNK        -0.1982 
     62 C          35.9864   29.4173    4.9924 C.2       10 UNK         0.4970 
     63 O          37.1401   29.0003    5.1126 O.2       10 UNK        -0.4916 
     64 N          34.9100   28.7364    5.4016 N.am      11 UNK        -0.4279 
     65 CA         34.9564   27.4662    6.1458 C.3       11 UNK         0.1003 
     66 C          35.3333   27.6012    7.6515 C.2       11 UNK         0.5709 
     67 N          35.3844   28.7992    8.2228 N.am      11 UNK        -0.7358 
     68 O          35.6035   26.5987    8.3091 O.2       11 UNK        -0.4999 
     69 C69        33.6746   26.6193    5.9327 C.3       12 UNK        -0.0954 
     70 S70        32.1301   27.4719    6.4094 S.3       12 UNK        -0.2268 
     71 C71        31.2173   27.4701    4.8359 C.3       12 UNK         0.0203 
     72 H72        26.4281   20.7885    1.2693 H         1 UNK         0.0888 
     73 H73        27.1651   21.6507    2.6241 H         1 UNK         0.0888 
     74 H74        25.9323   22.4393    1.6357 H         1 UNK         0.0888 
     75 H75        28.4248   20.4251    0.2312 H         1 UNK         0.3017 
     76 H76        29.8213   20.6492   -1.3934 H         1 UNK         0.0873 
     77 H77        31.3538   21.1802    0.4015 H         1 UNK         0.0745 
     78 H78        31.8648   21.9231   -1.0603 H         1 UNK         0.0745 
     79 H79        32.5871   23.1321    2.4521 H         1 UNK         0.0705 
     80 H80        31.1994   22.0772    2.4259 H         1 UNK         0.0705 
     81 H81        32.1939   25.6314    3.0535 H         1 UNK         0.1334 
     82 H82        29.0271   26.2489    5.8827 H         1 UNK         0.1417 
     83 H83        29.2252   22.5974    3.6450 H         1 UNK         0.1562 
     84 H84        27.4996   24.4451    6.4112 H         1 UNK         0.0748 
     85 H85        27.8611   22.8422    5.8287 H         1 UNK         0.0748 
     86 H86        26.1184   26.1293    5.3270 H         1 UNK         0.0940 
     87 H87        24.8179   25.8302    4.2069 H         1 UNK         0.0940 
     88 H88        27.7188   26.3425    3.3928 H         1 UNK         0.0703 
     89 H89        27.2307   25.4337    1.4934 H         1 UNK         0.3081 
     90 H90        25.3990   24.4725   -0.3200 H         1 UNK         0.0719 
     91 H91        24.6391   25.7742   -2.3330 H         1 UNK         0.0809 
     92 H92        24.5086   27.2253   -1.3397 H         1 UNK         0.0809 
     93 H93        23.4747   25.8423   -1.0200 H         1 UNK         0.0809 
     94 H94        27.4722   24.9527   -0.9088 H         1 UNK         0.2990 
     95 H95        29.3135   27.8456   -1.7178 H         1 UNK         0.0690 
     96 H96        30.8412   27.0383    0.1065 H         1 UNK         0.0788 
     97 H97        29.4996   26.1910    0.8655 H         1 UNK         0.0788 
     98 H98        29.4846   27.9462    0.7595 H         1 UNK         0.0788 
     99 H99        30.0013   25.0788   -1.3010 H         1 UNK         0.2993 
    100 H100       29.2246   23.8531   -4.4525 H         1 UNK         0.0949 
    101 H101       32.0234   24.9551   -3.8328 H         1 UNK         0.0767 
    102 H102       31.6586   23.6438   -4.9560 H         1 UNK         0.0767 
    103 H103       31.0963   25.2723   -5.2927 H         1 UNK         0.0767 
    104 H104       31.1532   23.1861   -2.3624 H         1 UNK         0.3013 
    105 H105       27.0128   28.3290    1.3852 H         1 UNK         0.3121 
    106 H106       25.8585   30.5876    2.7356 H         1 UNK         0.0774 
    107 H107       26.8501   31.8737    0.8431 H         1 UNK         0.0815 
    108 H108       27.7769   30.4651    0.3441 H         1 UNK         0.0815 
    109 H109       26.0160   30.4471    0.2523 H         1 UNK         0.0815 
    110 H110       26.7911   32.1639    3.9523 H         1 UNK         0.2987 
    111 H111       29.1785   31.6511    5.3978 H         1 UNK         0.0949 
    112 H112       27.2249   32.8738    6.3367 H         1 UNK         0.0806 
    113 H113       28.6691   33.8629    6.4491 H         1 UNK         0.0806 
    114 H114       27.4789   34.2003    5.2005 H         1 UNK         0.0806 
    115 H115       28.8698   33.0419    2.3187 H         1 UNK         0.3010 
    116 H116       31.1303   34.8298    2.3116 H         1 UNK         0.0829 
    117 H117       29.3164   34.9756    0.6135 H         1 UNK         0.0813 
    118 H118       30.8588   34.6783   -0.1696 H         1 UNK         0.0813 
    119 H119       29.7098   33.3612    0.0191 H         1 UNK         0.0813 
    120 H120       30.8422   31.3278    2.1858 H         1 UNK         0.3038 
    121 H121       33.5301   30.9055    1.0522 H         1 UNK         0.0769 
    122 H122       31.8221   29.2768    0.4598 H         1 UNK         0.0811 
    123 H123       31.3921   29.0096    2.1447 H         1 UNK         0.0811 
    124 H124       32.9605   28.4848    1.5395 H         1 UNK         0.0811 
    125 H125       35.3276   30.7673    2.2660 H         1 UNK         0.3204 
    126 H126       35.2308   31.4072    5.0942 H         1 UNK         0.0748 
    127 H127       37.6864   31.6416    4.8145 H         1 UNK         0.0771 
    128 H128       37.5926   30.9620    3.1951 H         1 UNK         0.0771 
    129 H129       36.8298   32.5112    3.5548 H         1 UNK         0.0771 
    130 H130       33.9932   29.1488    5.2574 H         1 UNK         0.2980 
    131 H131       35.7710   26.8812    5.7144 H         1 UNK         0.0545 
    132 H132       35.6367   28.8713    9.1958 H         1 UNK         0.3459 
    133 H133       35.1551   29.6267    7.6972 H         1 UNK         0.3459 
    134 H134       33.6200   26.3303    4.8834 H         1 UNK         0.0616 
    135 H135       33.7322   25.6800    6.4855 H         1 UNK         0.0616 
    136 H136       31.8760   27.8254    4.0443 H         1 UNK         0.0634 
    137 H137       30.3970   28.1874    4.8965 H         1 UNK         0.0634 
@<TRIPOS>BOND
     1    1    2 1    
     2    1   72 1    
     3    1   73 1    
     4    1   74 1    
     5    2    3 2    
     6    2    4 am   BACKBONE|DICT|INTERRES
     7    4    5 1    
     8    4   75 1    
     9    5    6 1    
    10    5   35 1    
    11    5   76 1    
    12    6    7 1    
    13    6   77 1    
    14    6   78 1    
    15    7    8 1    
    16    8    9 1    
    17    8   79 1    
    18    8   80 1    
    19    9   10 ar   
    20    9   14 ar   
    21   10   11 ar   
    22   10   81 1    
    23   11   12 ar   
    24   11   71 1    
    25   12   13 ar   
    26   12   82 1    
    27   13   14 ar   
    28   13   15 1    
    29   14   83 1    
    30   15   16 1    
    31   15   84 1    
    32   15   85 1    
    33   16   17 1    
    34   17   18 1    
    35   17   86 1    
    36   17   87 1    
    37   18   19 1    
    38   18   37 1    
    39   18   88 1    
    40   19   20 am   BACKBONE|DICT|INTERRES
    41   19   89 1    
    42   20   21 2    
    43   20   22 1    
    44   22   23 1    
    45   22   24 1    
    46   22   90 1    
    47   23   91 1    
    48   23   92 1    
    49   23   93 1    
    50   24   25 am   BACKBONE|DICT|INTERRES
    51   24   94 1    
    52   25   26 2    
    53   25   27 1    
    54   27   28 1    
    55   27   29 1    
    56   27   95 1    
    57   28   96 1    
    58   28   97 1    
    59   28   98 1    
    60   29   30 am   BACKBONE|DICT|INTERRES
    61   29   99 1    
    62   30   31 2    
    63   30   32 1    
    64   32   33 1    
    65   32   34 1    
    66   32  100 1    
    67   33  101 1    
    68   33  102 1    
    69   33  103 1    
    70   34   35 am   BACKBONE|DICT|INTERRES
    71   34  104 1    
    72   35   36 2    
    73   37   38 2    
    74   37   39 am   BACKBONE|DICT|INTERRES
    75   39   40 1    
    76   39  105 1    
    77   40   41 1    
    78   40   42 1    
    79   40  106 1    
    80   41  107 1    
    81   41  108 1    
    82   41  109 1    
    83   42   43 2    
    84   42   44 am   BACKBONE|DICT|INTERRES
    85   44   45 1    
    86   44  110 1    
    87   45   46 1    
    88   45   47 1    
    89   45  111 1    
    90   46  112 1    
    91   46  113 1    
    92   46  114 1    
    93   47   48 2    
    94   47   49 am   BACKBONE|DICT|INTERRES
    95   49   50 1    
    96   49  115 1    
    97   50   51 1    
    98   50   52 1    
    99   50  116 1    
   100   51  117 1    
   101   51  118 1    
   102   51  119 1    
   103   52   53 2    
   104   52   54 am   BACKBONE|DICT|INTERRES
   105   54   55 1    
   106   54  120 1    
   107   55   56 1    
   108   55   57 1    
   109   55  121 1    
   110   56  122 1    
   111   56  123 1    
   112   56  124 1    
   113   57   58 2    
   114   57   59 am   BACKBONE|DICT|INTERRES
   115   59   60 1    
   116   59  125 1    
   117   60   61 1    
   118   60   62 1    
   119   60  126 1    
   120   61  127 1    
   121   61  128 1    
   122   61  129 1    
   123   62   63 2    
   124   62   64 am   BACKBONE|DICT|INTERRES
   125   64   65 1    
   126   64  130 1    
   127   65   66 1    
   128   65   69 1    
   129   65  131 1    
   130   66   67 am   BACKBONE|DICT|INTERRES
   131   66   68 2    
   132   67  132 1    
   133   67  133 1    
   134   69   70 1    
   135   69  134 1    
   136   69  135 1    
   137   70   71 1    
   138   71  136 1    
   139   71  137 1    
@<TRIPOS>SUBSTRUCTURE
     1 UNK         1 GROUP             0       ****    0 ROOT    
