@<TRIPOS>MOLECULE
3R136
137   139    1
SMALL
USER_CHARGES


@<TRIPOS>ATOM
      1 CA         32.1926   20.6333   -3.5803 C.3       0 UNK        -0.1979 
      2 C          31.3649   21.9099   -3.5773 C.2       0 UNK         0.4864 
      3 O          30.6790   22.1968   -4.5592 O.2       0 UNK        -0.5359 
      4 N          31.4208   22.6766   -2.4797 N.am      1 UNK        -0.4318 
      5 CA         30.6903   23.9379   -2.2940 C.3       1 UNK         0.0824 
      6 C6         31.3896   24.8471   -1.2536 C.3       12 UNK        -0.0944 
      7 S7         31.5130   24.1173    0.4173 S.3       12 UNK        -0.2672 
      8 C8         30.4308   25.2559    1.3274 C.3       12 UNK         0.0333 
      9 C9         30.3247   24.8952    2.7994 C.ar      12 UNK        -0.0807 
     10 C10        31.3930   25.1385    3.6653 C.ar      12 UNK        -0.0894 
     11 C11        31.2773   24.8770    5.0335 C.ar      12 UNK        -0.0804 
     12 C12        30.0668   24.3844    5.5356 C.ar      12 UNK        -0.0824 
     13 C13        28.9841   24.1507    4.6814 C.ar      12 UNK        -0.0762 
     14 C14        29.1354   24.3721    3.3087 C.ar      12 UNK        -0.0782 
     15 C15        27.6455   23.6893    5.2469 C.3       12 UNK         0.0230 
     16 S16        26.2322   24.6590    4.6120 S.3       12 UNK        -0.2608 
     17 C17        26.5929   26.3500    5.2112 C.3       12 UNK        -0.0989 
     18 CA         27.4371   27.2009    4.2237 C.3       5 UNK         0.0716 
     19 N          26.9180   27.1768    2.8569 N.am      5 UNK        -0.4135 
     20 C          27.5764   27.5891    1.7681 C.2       4 UNK         0.5031 
     21 O          28.7052   28.0828    1.8121 O.2       4 UNK        -0.5229 
     22 CA         26.8665   27.4026    0.4066 C.3       4 UNK         0.0329 
     23 CB         27.7850   27.7317   -0.7849 C.3       4 UNK        -0.2001 
     24 N          26.3118   26.0558    0.2082 N.am      4 UNK        -0.4303 
     25 C          25.2097   25.5712    0.8001 C.2       3 UNK         0.5044 
     26 O          24.5550   26.2169    1.6205 O.2       3 UNK        -0.5152 
     27 CA         24.7322   24.1529    0.4319 C.3       3 UNK         0.0319 
     28 CB         23.2881   24.1863   -0.0989 C.3       3 UNK        -0.2001 
     29 N          25.5700   23.4599   -0.5497 N.am      3 UNK        -0.4354 
     30 C          26.7227   22.8334   -0.2831 C.2       2 UNK         0.4964 
     31 O          27.2525   22.8242    0.8270 O.2       2 UNK        -0.5047 
     32 CA         27.3937   22.0654   -1.4389 C.3       2 UNK         0.0288 
     33 CB         26.5928   22.0725   -2.7629 C.3       2 UNK        -0.2113 
     34 N          28.7704   22.5094   -1.6757 N.am      2 UNK        -0.4145 
     35 C          29.1830   23.7460   -1.9979 C.2       1 UNK         0.5006 
     36 O          28.4272   24.7163   -2.0825 O.2       1 UNK        -0.5103 
     37 C          27.5917   28.6498    4.7141 C.2       5 UNK         0.5055 
     38 O          26.6006   29.3815    4.7661 O.2       5 UNK        -0.5220 
     39 N          28.8335   29.0241    5.0518 N.am      6 UNK        -0.4450 
     40 CA         29.2670   30.3446    5.5207 C.3       6 UNK         0.0367 
     41 CB         28.6029   30.7106    6.8649 C.3       6 UNK        -0.1929 
     42 C          29.1402   31.4597    4.4651 C.2       6 UNK         0.5070 
     43 O          29.1065   32.6368    4.8278 O.2       6 UNK        -0.5237 
     44 N          29.1164   31.1000    3.1735 N.am      7 UNK        -0.4739 
     45 CA         29.0037   32.0247    2.0392 C.3       7 UNK         0.0276 
     46 CB         28.4109   31.2663    0.8391 C.3       7 UNK        -0.1927 
     47 C          30.3409   32.7137    1.6937 C.2       7 UNK         0.5013 
     48 O          30.7411   32.7271    0.5278 O.2       7 UNK        -0.5193 
     49 N          31.0171   33.2575    2.7156 N.am      8 UNK        -0.4253 
     50 CA         32.2911   33.9943    2.7199 C.3       8 UNK         0.0242 
     51 CB         32.1745   35.3066    1.9206 C.3       8 UNK        -0.2000 
     52 C          33.5306   33.1934    2.2744 C.2       8 UNK         0.4948 
     53 O          34.5738   33.3025    2.9192 O.2       8 UNK        -0.5275 
     54 N          33.4105   32.4194    1.1892 N.am      9 UNK        -0.4246 
     55 CA         34.4807   31.6269    0.5767 C.3       9 UNK         0.0261 
     56 CB         34.0078   31.1224   -0.7963 C.3       9 UNK        -0.1959 
     57 C          34.9624   30.4500    1.4429 C.2       9 UNK         0.5033 
     58 O          36.1262   30.0605    1.3330 O.2       9 UNK        -0.5390 
     59 N          34.0731   29.9097    2.2820 N.am      10 UNK        -0.4215 
     60 CA         34.3380   28.8377    3.2335 C.3       10 UNK         0.0240 
     61 CB         34.2416   27.4725    2.5307 C.3       10 UNK        -0.1982 
     62 C          33.3191   28.9575    4.3699 C.2       10 UNK         0.4970 
     63 O          32.2019   29.4216    4.1283 O.2       10 UNK        -0.4916 
     64 N          33.7264   28.5479    5.5788 N.am      11 UNK        -0.4279 
     65 CA         32.9511   28.6299    6.8323 C.3       11 UNK         0.1003 
     66 C          32.6486   30.0788    7.3325 C.2       11 UNK         0.5709 
     67 N          33.2619   31.1180    6.7787 N.am      11 UNK        -0.7358 
     68 O          31.8748   30.2667    8.2677 O.2       11 UNK        -0.4999 
     69 C69        31.6996   27.6944    6.8213 C.3       12 UNK        -0.0954 
     70 S70        32.0824   26.0338    7.4650 S.3       12 UNK        -0.2268 
     71 C71        32.4766   25.1036    5.9484 C.3       12 UNK         0.0203 
     72 H72        32.7467   20.5040   -2.6507 H         1 UNK         0.0888 
     73 H73        31.5456   19.7666   -3.7129 H         1 UNK         0.0888 
     74 H74        32.9088   20.6530   -4.4013 H         1 UNK         0.0888 
     75 H75        32.0020   22.3976   -1.7009 H         1 UNK         0.3017 
     76 H76        30.7283   24.4723   -3.2461 H         1 UNK         0.0873 
     77 H77        32.4038   25.0670   -1.5908 H         1 UNK         0.0745 
     78 H78        30.8907   25.8170   -1.2052 H         1 UNK         0.0745 
     79 H79        29.4436   25.2536    0.8620 H         1 UNK         0.0705 
     80 H80        30.8135   26.2738    1.2357 H         1 UNK         0.0705 
     81 H81        32.3179   25.5259    3.2663 H         1 UNK         0.1334 
     82 H82        29.9667   24.1938    6.5954 H         1 UNK         0.1417 
     83 H83        28.3001   24.1969    2.6458 H         1 UNK         0.1562 
     84 H84        27.6440   23.7396    6.3369 H         1 UNK         0.0748 
     85 H85        27.4980   22.6411    4.9842 H         1 UNK         0.0748 
     86 H86        27.0926   26.2847    6.1797 H         1 UNK         0.0940 
     87 H87        25.6330   26.8347    5.4012 H         1 UNK         0.0940 
     88 H88        28.4370   26.7709    4.1882 H         1 UNK         0.0703 
     89 H89        25.9824   26.8017    2.7304 H         1 UNK         0.3081 
     90 H90        26.0383   28.1139    0.3870 H         1 UNK         0.0719 
     91 H91        28.6800   27.1091   -0.7866 H         1 UNK         0.0809 
     92 H92        27.2738   27.5843   -1.7363 H         1 UNK         0.0809 
     93 H93        28.1116   28.7704   -0.7557 H         1 UNK         0.0809 
     94 H94        26.8079   25.4582   -0.4409 H         1 UNK         0.2990 
     95 H95        24.7365   23.5725    1.3573 H         1 UNK         0.0690 
     96 H96        22.9154   23.1818   -0.3006 H         1 UNK         0.0788 
     97 H97        23.2102   24.7660   -1.0196 H         1 UNK         0.0788 
     98 H98        22.6113   24.6375    0.6281 H         1 UNK         0.0788 
     99 H99        25.2256   23.4349   -1.4990 H         1 UNK         0.2993 
    100 H100       27.4603   21.0292   -1.1036 H         1 UNK         0.0949 
    101 H101       26.4762   23.0771   -3.1714 H         1 UNK         0.0767 
    102 H102       27.0936   21.4702   -3.5214 H         1 UNK         0.0767 
    103 H103       25.5979   21.6453   -2.6289 H         1 UNK         0.0767 
    104 H104       29.4806   21.7974   -1.5851 H         1 UNK         0.3013 
    105 H105       29.5817   28.3607    4.9036 H         1 UNK         0.3121 
    106 H106       30.3342   30.2550    5.7094 H         1 UNK         0.0774 
    107 H107       29.0536   31.6082    7.2900 H         1 UNK         0.0815 
    108 H108       27.5361   30.9053    6.7533 H         1 UNK         0.0815 
    109 H109       28.7275   29.9139    7.5981 H         1 UNK         0.0815 
    110 H110       29.1871   30.1154    2.9451 H         1 UNK         0.2987 
    111 H111       28.3012   32.8174    2.3061 H         1 UNK         0.0949 
    112 H112       28.2221   31.9393    0.0018 H         1 UNK         0.0806 
    113 H113       29.0928   30.4912    0.4883 H         1 UNK         0.0806 
    114 H114       27.4626   30.7929    1.0940 H         1 UNK         0.0806 
    115 H115       30.5723   33.1646    3.6249 H         1 UNK         0.3010 
    116 H116       32.4617   34.2647    3.7634 H         1 UNK         0.0829 
    117 H117       31.3622   35.9286    2.2965 H         1 UNK         0.0813 
    118 H118       33.0919   35.8919    1.9970 H         1 UNK         0.0813 
    119 H119       31.9944   35.1249    0.8605 H         1 UNK         0.0813 
    120 H120       32.5010   32.4152    0.7289 H         1 UNK         0.3038 
    121 H121       35.3358   32.2884    0.4223 H         1 UNK         0.0769 
    122 H122       34.7902   30.5460   -1.2922 H         1 UNK         0.0811 
    123 H123       33.7495   31.9509   -1.4560 H         1 UNK         0.0811 
    124 H124       33.1321   30.4777   -0.7090 H         1 UNK         0.0811 
    125 H125       33.1425   30.3040    2.3468 H         1 UNK         0.3204 
    126 H126       35.3404   28.9666    3.6477 H         1 UNK         0.0748 
    127 H127       34.4187   26.6567    3.2321 H         1 UNK         0.0771 
    128 H128       33.2592   27.3228    2.0810 H         1 UNK         0.0771 
    129 H129       34.9852   27.3813    1.7388 H         1 UNK         0.0771 
    130 H130       34.6669   28.1940    5.6796 H         1 UNK         0.2980 
    131 H131       33.6336   28.2621    7.5992 H         1 UNK         0.0545 
    132 H132       33.9177   30.9890    6.0263 H         1 UNK         0.3459 
    133 H133       33.0699   32.0430    7.1286 H         1 UNK         0.3459 
    134 H134       31.2639   27.6086    5.8266 H         1 UNK         0.0616 
    135 H135       30.8964   28.0785    7.4516 H         1 UNK         0.0616 
    136 H136       32.8787   24.1312    6.2348 H         1 UNK         0.0634 
    137 H137       33.2774   25.6235    5.4208 H         1 UNK         0.0634 
@<TRIPOS>BOND
     1    1    2 1    
     2    1   72 1    
     3    1   73 1    
     4    1   74 1    
     5    2    3 2    
     6    2    4 am   BACKBONE|DICT|INTERRES
     7    4    5 1    
     8    4   75 1    
     9    5    6 1    
    10    5   35 1    
    11    5   76 1    
    12    6    7 1    
    13    6   77 1    
    14    6   78 1    
    15    7    8 1    
    16    8    9 1    
    17    8   79 1    
    18    8   80 1    
    19    9   10 ar   
    20    9   14 ar   
    21   10   11 ar   
    22   10   81 1    
    23   11   12 ar   
    24   11   71 1    
    25   12   13 ar   
    26   12   82 1    
    27   13   14 ar   
    28   13   15 1    
    29   14   83 1    
    30   15   16 1    
    31   15   84 1    
    32   15   85 1    
    33   16   17 1    
    34   17   18 1    
    35   17   86 1    
    36   17   87 1    
    37   18   19 1    
    38   18   37 1    
    39   18   88 1    
    40   19   20 am   BACKBONE|DICT|INTERRES
    41   19   89 1    
    42   20   21 2    
    43   20   22 1    
    44   22   23 1    
    45   22   24 1    
    46   22   90 1    
    47   23   91 1    
    48   23   92 1    
    49   23   93 1    
    50   24   25 am   BACKBONE|DICT|INTERRES
    51   24   94 1    
    52   25   26 2    
    53   25   27 1    
    54   27   28 1    
    55   27   29 1    
    56   27   95 1    
    57   28   96 1    
    58   28   97 1    
    59   28   98 1    
    60   29   30 am   BACKBONE|DICT|INTERRES
    61   29   99 1    
    62   30   31 2    
    63   30   32 1    
    64   32   33 1    
    65   32   34 1    
    66   32  100 1    
    67   33  101 1    
    68   33  102 1    
    69   33  103 1    
    70   34   35 am   BACKBONE|DICT|INTERRES
    71   34  104 1    
    72   35   36 2    
    73   37   38 2    
    74   37   39 am   BACKBONE|DICT|INTERRES
    75   39   40 1    
    76   39  105 1    
    77   40   41 1    
    78   40   42 1    
    79   40  106 1    
    80   41  107 1    
    81   41  108 1    
    82   41  109 1    
    83   42   43 2    
    84   42   44 am   BACKBONE|DICT|INTERRES
    85   44   45 1    
    86   44  110 1    
    87   45   46 1    
    88   45   47 1    
    89   45  111 1    
    90   46  112 1    
    91   46  113 1    
    92   46  114 1    
    93   47   48 2    
    94   47   49 am   BACKBONE|DICT|INTERRES
    95   49   50 1    
    96   49  115 1    
    97   50   51 1    
    98   50   52 1    
    99   50  116 1    
   100   51  117 1    
   101   51  118 1    
   102   51  119 1    
   103   52   53 2    
   104   52   54 am   BACKBONE|DICT|INTERRES
   105   54   55 1    
   106   54  120 1    
   107   55   56 1    
   108   55   57 1    
   109   55  121 1    
   110   56  122 1    
   111   56  123 1    
   112   56  124 1    
   113   57   58 2    
   114   57   59 am   BACKBONE|DICT|INTERRES
   115   59   60 1    
   116   59  125 1    
   117   60   61 1    
   118   60   62 1    
   119   60  126 1    
   120   61  127 1    
   121   61  128 1    
   122   61  129 1    
   123   62   63 2    
   124   62   64 am   BACKBONE|DICT|INTERRES
   125   64   65 1    
   126   64  130 1    
   127   65   66 1    
   128   65   69 1    
   129   65  131 1    
   130   66   67 am   BACKBONE|DICT|INTERRES
   131   66   68 2    
   132   67  132 1    
   133   67  133 1    
   134   69   70 1    
   135   69  134 1    
   136   69  135 1    
   137   70   71 1    
   138   71  136 1    
   139   71  137 1    
@<TRIPOS>SUBSTRUCTURE
     1 UNK         1 GROUP             0       ****    0 ROOT    
