@<TRIPOS>MOLECULE
3R136
137   139    1
SMALL
USER_CHARGES


@<TRIPOS>ATOM
      1 CA         26.3792   25.3365    6.2266 C.3       0 UNK        -0.1979 
      2 C          26.7230   24.0395    5.5085 C.2       0 UNK         0.4864 
      3 O          27.1965   23.0940    6.1405 O.2       0 UNK        -0.5359 
      4 N          26.4801   23.9880    4.1963 N.am      1 UNK        -0.4318 
      5 CA         26.7158   22.8389    3.3246 C.3       1 UNK         0.0824 
      6 C6         28.2129   22.6714    2.9333 C.3       12 UNK        -0.0944 
      7 S7         28.8963   24.0855    2.0032 S.3       12 UNK        -0.2672 
      8 C8         30.5881   23.5279    1.6744 C.3       12 UNK         0.0333 
      9 C9         31.4540   24.6707    1.1621 C.ar      12 UNK        -0.0807 
     10 C10        32.3430   25.3174    2.0265 C.ar      12 UNK        -0.0894 
     11 C11        33.1993   26.3136    1.5496 C.ar      12 UNK        -0.0804 
     12 C12        33.1487   26.6715    0.1995 C.ar      12 UNK        -0.0824 
     13 C13        32.2436   26.0561   -0.6747 C.ar      12 UNK        -0.0762 
     14 C14        31.4000   25.0528   -0.1832 C.ar      12 UNK        -0.0782 
     15 C15        32.2274   26.4045   -2.1626 C.3       12 UNK         0.0230 
     16 S16        32.4153   28.1925   -2.4938 S.3       12 UNK        -0.2608 
     17 C17        30.8310   28.6404   -3.2886 C.3       12 UNK        -0.0989 
     18 CA         29.7645   29.2131   -2.3224 C.3       5 UNK         0.0716 
     19 N          29.3506   28.2167   -1.3346 N.am      5 UNK        -0.4135 
     20 C          28.1990   28.2436   -0.6568 C.2       4 UNK         0.5031 
     21 O          27.3912   29.1734   -0.7021 O.2       4 UNK        -0.5229 
     22 CA         27.8651   26.9785    0.1495 C.3       4 UNK         0.0329 
     23 CB         27.1563   27.3189    1.4733 C.3       4 UNK        -0.2001 
     24 N          27.0188   26.0756   -0.6372 N.am      4 UNK        -0.4303 
     25 C          27.3894   25.4452   -1.7629 C.2       3 UNK         0.5044 
     26 O          28.5376   25.4614   -2.2116 O.2       3 UNK        -0.5152 
     27 CA         26.2761   24.6813   -2.5102 C.3       3 UNK         0.0319 
     28 CB         26.7770   23.9741   -3.7889 C.3       3 UNK        -0.2001 
     29 N          25.5494   23.7487   -1.6395 N.am      3 UNK        -0.4354 
     30 C          26.0643   22.6984   -0.9847 C.2       2 UNK         0.4964 
     31 O          27.2315   22.3136   -1.0839 O.2       2 UNK        -0.5047 
     32 CA         25.1124   21.9491   -0.0378 C.3       2 UNK         0.0288 
     33 CB         24.8495   20.5166   -0.5321 C.3       2 UNK        -0.2113 
     34 N          25.7020   21.9065    1.2994 N.am      2 UNK        -0.4145 
     35 C          25.7993   22.9785    2.0964 C.2       1 UNK         0.5006 
     36 O          25.2278   24.0521    1.8720 O.2       1 UNK        -0.5103 
     37 C          30.1889   30.5637   -1.7081 C.2       5 UNK         0.5055 
     38 O          30.1390   31.5774   -2.4079 O.2       5 UNK        -0.5220 
     39 N          30.5952   30.5669   -0.4331 N.am      6 UNK        -0.4450 
     40 CA         31.0428   31.7441    0.3000 C.3       6 UNK         0.0367 
     41 CB         32.5260   32.0172   -0.0131 C.3       6 UNK        -0.1929 
     42 C          30.8473   31.5119    1.7997 C.2       6 UNK         0.5070 
     43 O          30.7982   30.3603    2.2410 O.2       6 UNK        -0.5237 
     44 N          30.7606   32.6229    2.5470 N.am      7 UNK        -0.4739 
     45 CA         30.8390   32.7400    4.0125 C.3       7 UNK         0.0276 
     46 CB         32.2996   32.5143    4.4524 C.3       7 UNK        -0.1927 
     47 C          29.8651   31.8515    4.8141 C.2       7 UNK         0.5013 
     48 O          30.1580   31.5212    5.9636 O.2       7 UNK        -0.5193 
     49 N          28.7524   31.4339    4.1904 N.am      8 UNK        -0.4253 
     50 CA         27.8009   30.4268    4.6841 C.3       8 UNK         0.0242 
     51 CB         26.9487   31.0047    5.8341 C.3       8 UNK        -0.2000 
     52 C          28.4834   29.0904    5.0570 C.2       8 UNK         0.4948 
     53 O          28.0935   28.4582    6.0391 O.2       8 UNK        -0.5275 
     54 N          29.5138   28.7168    4.2799 N.am      9 UNK        -0.4246 
     55 CA         30.4111   27.5650    4.4349 C.3       9 UNK         0.0261 
     56 CB         29.6342   26.2495    4.6314 C.3       9 UNK        -0.1959 
     57 C          31.4908   27.7330    5.5195 C.2       9 UNK         0.5033 
     58 O          32.3881   26.8911    5.5884 O.2       9 UNK        -0.5390 
     59 N          31.4446   28.8032    6.3263 N.am      10 UNK        -0.4215 
     60 CA         32.4410   29.1108    7.3566 C.3       10 UNK         0.0240 
     61 CB         31.7565   29.8529    8.5199 C.3       10 UNK        -0.1982 
     62 C          33.6140   29.8997    6.7472 C.2       10 UNK         0.4970 
     63 O          33.8978   31.0197    7.1748 O.2       10 UNK        -0.4916 
     64 N          34.2498   29.3077    5.7291 N.am      11 UNK        -0.4279 
     65 CA         35.3027   29.9242    4.9062 C.3       11 UNK         0.1003 
     66 C          36.6464   30.2034    5.6422 C.2       11 UNK         0.5709 
     67 N          36.8984   29.6279    6.8121 N.am      11 UNK        -0.7358 
     68 O          37.4748   30.9594    5.1401 O.2       11 UNK        -0.4999 
     69 C69        35.5561   29.1288    3.5977 C.3       12 UNK        -0.0954 
     70 S70        34.0434   28.7433    2.6454 S.3       12 UNK        -0.2268 
     71 C71        34.2375   26.9407    2.4706 C.3       12 UNK         0.0203 
     72 H72        26.2088   26.1545    5.5263 H         1 UNK         0.0888 
     73 H73        25.4806   25.2067    6.8288 H         1 UNK         0.0888 
     74 H74        27.1930   25.6308    6.8888 H         1 UNK         0.0888 
     75 H75        26.0396   24.7629    3.7154 H         1 UNK         0.3017 
     76 H76        26.3923   21.9420    3.8573 H         1 UNK         0.0873 
     77 H77        28.3552   21.7660    2.3409 H         1 UNK         0.0745 
     78 H78        28.8135   22.5325    3.8335 H         1 UNK         0.0745 
     79 H79        31.0147   23.1095    2.5875 H         1 UNK         0.0705 
     80 H80        30.5647   22.7189    0.9428 H         1 UNK         0.0705 
     81 H81        32.3916   25.0221    3.0660 H         1 UNK         0.1334 
     82 H82        33.8325   27.4230   -0.1709 H         1 UNK         0.1417 
     83 H83        30.7130   24.5479   -0.8502 H         1 UNK         0.1562 
     84 H84        31.3175   26.0281   -2.6320 H         1 UNK         0.0748 
     85 H85        33.0535   25.8795   -2.6438 H         1 UNK         0.0748 
     86 H86        30.4271   27.7750   -3.8165 H         1 UNK         0.0940 
     87 H87        31.0479   29.3698   -4.0716 H         1 UNK         0.0940 
     88 H88        28.8832   29.4322   -2.9297 H         1 UNK         0.0703 
     89 H89        29.9308   27.3920   -1.2697 H         1 UNK         0.3081 
     90 H90        28.7984   26.4650    0.3853 H         1 UNK         0.0719 
     91 H91        26.9686   26.4229    2.0644 H         1 UNK         0.0809 
     92 H92        27.7705   27.9843    2.0801 H         1 UNK         0.0809 
     93 H93        26.1994   27.8155    1.3085 H         1 UNK         0.0809 
     94 H94        26.0603   25.9868   -0.3330 H         1 UNK         0.2990 
     95 H95        25.5518   25.4351   -2.8226 H         1 UNK         0.0690 
     96 H96        25.9621   23.4721   -4.3103 H         1 UNK         0.0788 
     97 H97        27.5445   23.2310   -3.5707 H         1 UNK         0.0788 
     98 H98        27.2129   24.6924   -4.4843 H         1 UNK         0.0788 
     99 H99        24.5783   23.9780   -1.4763 H         1 UNK         0.2993 
    100 H100       24.1566   22.4757    0.0153 H         1 UNK         0.0949 
    101 H101       24.1649   19.9875    0.1313 H         1 UNK         0.0767 
    102 H102       24.3975   20.5252   -1.5248 H         1 UNK         0.0767 
    103 H103       25.7700   19.9348   -0.5983 H         1 UNK         0.0767 
    104 H104       26.2248   21.0746    1.5317 H         1 UNK         0.3013 
    105 H105       30.5847   29.7110    0.1074 H         1 UNK         0.3121 
    106 H106       30.4390   32.6046    0.0030 H         1 UNK         0.0774 
    107 H107       33.1551   31.1706    0.2666 H         1 UNK         0.0815 
    108 H108       32.8910   32.8889    0.5313 H         1 UNK         0.0815 
    109 H109       32.6808   32.2117   -1.0745 H         1 UNK         0.0815 
    110 H110       30.7596   33.5078    2.0572 H         1 UNK         0.2987 
    111 H111       30.5718   33.7692    4.2574 H         1 UNK         0.0949 
    112 H112       32.6074   31.4828    4.2782 H         1 UNK         0.0806 
    113 H113       32.9863   33.1648    3.9112 H         1 UNK         0.0806 
    114 H114       32.4325   32.7220    5.5150 H         1 UNK         0.0806 
    115 H115       28.6117   31.7484    3.2404 H         1 UNK         0.3010 
    116 H116       27.1297   30.2011    3.8540 H         1 UNK         0.0829 
    117 H117       27.5501   31.2044    6.7216 H         1 UNK         0.0813 
    118 H118       26.4644   31.9358    5.5404 H         1 UNK         0.0813 
    119 H119       26.1610   30.3089    6.1256 H         1 UNK         0.0813 
    120 H120       29.7935   29.3511    3.5331 H         1 UNK         0.3038 
    121 H121       30.9433   27.4950    3.4849 H         1 UNK         0.0769 
    122 H122       30.2741   25.3880    4.4404 H         1 UNK         0.0811 
    123 H123       29.2616   26.1484    5.6504 H         1 UNK         0.0811 
    124 H124       28.7825   26.1856    3.9564 H         1 UNK         0.0811 
    125 H125       30.7288   29.5068    6.1753 H         1 UNK         0.3204 
    126 H126       32.8488   28.1812    7.7593 H         1 UNK         0.0748 
    127 H127       32.4616   30.0407    9.3305 H         1 UNK         0.0771 
    128 H128       31.3559   30.8177    8.2078 H         1 UNK         0.0771 
    129 H129       30.9350   29.2681    8.9339 H         1 UNK         0.0771 
    130 H130       33.9348   28.3890    5.4413 H         1 UNK         0.2980 
    131 H131       34.9260   30.9054    4.6130 H         1 UNK         0.0545 
    132 H132       36.2241   29.0095    7.2326 H         1 UNK         0.3459 
    133 H133       37.7704   29.8196    7.2795 H         1 UNK         0.3459 
    134 H134       36.2186   29.6920    2.9379 H         1 UNK         0.0616 
    135 H135       36.0828   28.2010    3.8282 H         1 UNK         0.0616 
    136 H136       34.1998   26.4867    3.4621 H         1 UNK         0.0634 
    137 H137       35.2286   26.7258    2.0685 H         1 UNK         0.0634 
@<TRIPOS>BOND
     1    1    2 1    
     2    1   72 1    
     3    1   73 1    
     4    1   74 1    
     5    2    3 2    
     6    2    4 am   BACKBONE|DICT|INTERRES
     7    4    5 1    
     8    4   75 1    
     9    5    6 1    
    10    5   35 1    
    11    5   76 1    
    12    6    7 1    
    13    6   77 1    
    14    6   78 1    
    15    7    8 1    
    16    8    9 1    
    17    8   79 1    
    18    8   80 1    
    19    9   10 ar   
    20    9   14 ar   
    21   10   11 ar   
    22   10   81 1    
    23   11   12 ar   
    24   11   71 1    
    25   12   13 ar   
    26   12   82 1    
    27   13   14 ar   
    28   13   15 1    
    29   14   83 1    
    30   15   16 1    
    31   15   84 1    
    32   15   85 1    
    33   16   17 1    
    34   17   18 1    
    35   17   86 1    
    36   17   87 1    
    37   18   19 1    
    38   18   37 1    
    39   18   88 1    
    40   19   20 am   BACKBONE|DICT|INTERRES
    41   19   89 1    
    42   20   21 2    
    43   20   22 1    
    44   22   23 1    
    45   22   24 1    
    46   22   90 1    
    47   23   91 1    
    48   23   92 1    
    49   23   93 1    
    50   24   25 am   BACKBONE|DICT|INTERRES
    51   24   94 1    
    52   25   26 2    
    53   25   27 1    
    54   27   28 1    
    55   27   29 1    
    56   27   95 1    
    57   28   96 1    
    58   28   97 1    
    59   28   98 1    
    60   29   30 am   BACKBONE|DICT|INTERRES
    61   29   99 1    
    62   30   31 2    
    63   30   32 1    
    64   32   33 1    
    65   32   34 1    
    66   32  100 1    
    67   33  101 1    
    68   33  102 1    
    69   33  103 1    
    70   34   35 am   BACKBONE|DICT|INTERRES
    71   34  104 1    
    72   35   36 2    
    73   37   38 2    
    74   37   39 am   BACKBONE|DICT|INTERRES
    75   39   40 1    
    76   39  105 1    
    77   40   41 1    
    78   40   42 1    
    79   40  106 1    
    80   41  107 1    
    81   41  108 1    
    82   41  109 1    
    83   42   43 2    
    84   42   44 am   BACKBONE|DICT|INTERRES
    85   44   45 1    
    86   44  110 1    
    87   45   46 1    
    88   45   47 1    
    89   45  111 1    
    90   46  112 1    
    91   46  113 1    
    92   46  114 1    
    93   47   48 2    
    94   47   49 am   BACKBONE|DICT|INTERRES
    95   49   50 1    
    96   49  115 1    
    97   50   51 1    
    98   50   52 1    
    99   50  116 1    
   100   51  117 1    
   101   51  118 1    
   102   51  119 1    
   103   52   53 2    
   104   52   54 am   BACKBONE|DICT|INTERRES
   105   54   55 1    
   106   54  120 1    
   107   55   56 1    
   108   55   57 1    
   109   55  121 1    
   110   56  122 1    
   111   56  123 1    
   112   56  124 1    
   113   57   58 2    
   114   57   59 am   BACKBONE|DICT|INTERRES
   115   59   60 1    
   116   59  125 1    
   117   60   61 1    
   118   60   62 1    
   119   60  126 1    
   120   61  127 1    
   121   61  128 1    
   122   61  129 1    
   123   62   63 2    
   124   62   64 am   BACKBONE|DICT|INTERRES
   125   64   65 1    
   126   64  130 1    
   127   65   66 1    
   128   65   69 1    
   129   65  131 1    
   130   66   67 am   BACKBONE|DICT|INTERRES
   131   66   68 2    
   132   67  132 1    
   133   67  133 1    
   134   69   70 1    
   135   69  134 1    
   136   69  135 1    
   137   70   71 1    
   138   71  136 1    
   139   71  137 1    
@<TRIPOS>SUBSTRUCTURE
     1 UNK         1 GROUP             0       ****    0 ROOT    
