@<TRIPOS>MOLECULE
3R136
137   139    1
SMALL
USER_CHARGES


@<TRIPOS>ATOM
      1 CA         29.0124   23.2520    4.6050 C.3       0 UNK        -0.1979 
      2 C          29.3089   22.8706    3.1631 C.2       0 UNK         0.4864 
      3 O          29.2764   21.6845    2.8295 O.2       0 UNK        -0.5359 
      4 N          29.5876   23.8629    2.3067 N.am      1 UNK        -0.4318 
      5 CA         29.7152   23.7021    0.8545 C.3       1 UNK         0.0824 
      6 C6         30.6080   24.7987    0.2083 C.3       12 UNK        -0.0944 
      7 S7         30.1602   26.5290    0.5936 S.3       12 UNK        -0.2672 
      8 C8         31.6153   27.0842    1.5454 C.3       12 UNK         0.0333 
      9 C9         31.5530   26.5723    2.9740 C.ar      12 UNK        -0.0807 
     10 C10        32.3121   25.4704    3.3786 C.ar      12 UNK        -0.0894 
     11 C11        32.2051   24.9797    4.6841 C.ar      12 UNK        -0.0804 
     12 C12        31.3078   25.5836    5.5729 C.ar      12 UNK        -0.0824 
     13 C13        30.5424   26.6848    5.1765 C.ar      12 UNK        -0.0762 
     14 C14        30.7012   27.1940    3.8873 C.ar      12 UNK        -0.0782 
     15 C15        29.5325   27.3088    6.1305 C.3       12 UNK         0.0230 
     16 S16        27.8121   27.0508    5.5704 S.3       12 UNK        -0.2608 
     17 C17        27.5071   28.5146    4.5200 C.3       12 UNK        -0.0989 
     18 CA         27.3059   28.1668    3.0217 C.3       5 UNK         0.0716 
     19 N          26.1110   27.3483    2.7899 N.am      5 UNK        -0.4135 
     20 C          25.7506   26.8497    1.5984 C.2       4 UNK         0.5031 
     21 O          26.4311   26.9521    0.5750 O.2       4 UNK        -0.5229 
     22 CA         24.3811   26.1635    1.5276 C.3       4 UNK         0.0329 
     23 CB         23.2474   27.2074    1.6131 C.3       4 UNK        -0.2001 
     24 N          24.2962   25.4219    0.2710 N.am      4 UNK        -0.4303 
     25 C          23.3724   24.5138   -0.0558 C.2       3 UNK         0.5044 
     26 O          22.4467   24.1834    0.6867 O.2       3 UNK        -0.5152 
     27 CA         23.4970   23.8397   -1.4343 C.3       3 UNK         0.0319 
     28 CB         23.0929   24.7929   -2.5776 C.3       3 UNK        -0.2001 
     29 N          24.8037   23.2079   -1.6632 N.am      3 UNK        -0.4354 
     30 C          25.9966   23.7874   -1.8600 C.2       2 UNK         0.4964 
     31 O          26.1737   25.0005   -1.9810 O.2       2 UNK        -0.5047 
     32 CA         27.1978   22.8283   -1.9496 C.3       2 UNK         0.0288 
     33 CB         27.6483   22.6693   -3.4114 C.3       2 UNK        -0.2113 
     34 N          28.3508   23.2261   -1.1319 N.am      2 UNK        -0.4145 
     35 C          28.3329   23.5207    0.1785 C.2       1 UNK         0.5006 
     36 O          27.2986   23.5828    0.8510 O.2       1 UNK        -0.5103 
     37 C          27.2423   29.4570    2.1766 C.2       5 UNK         0.5055 
     38 O          26.2793   30.2168    2.3070 O.2       5 UNK        -0.5220 
     39 N          28.2515   29.6703    1.3276 N.am      6 UNK        -0.4450 
     40 CA         28.3310   30.7717    0.3722 C.3       6 UNK         0.0367 
     41 CB         27.6099   30.3640   -0.9280 C.3       6 UNK        -0.1929 
     42 C          29.8031   31.1220    0.1214 C.2       6 UNK         0.5070 
     43 O          30.6909   30.4849    0.6966 O.2       6 UNK        -0.5237 
     44 N          30.0343   32.1352   -0.7263 N.am      7 UNK        -0.4739 
     45 CA         31.3391   32.6879   -1.1110 C.3       7 UNK         0.0276 
     46 CB         32.1464   31.6672   -1.9470 C.3       7 UNK        -0.1927 
     47 C          32.0910   33.2316    0.1169 C.2       7 UNK         0.5013 
     48 O          31.7371   34.3052    0.6063 O.2       7 UNK        -0.5193 
     49 N          33.0783   32.4739    0.6124 N.am      8 UNK        -0.4253 
     50 CA         33.7971   32.7505    1.8582 C.3       8 UNK         0.0242 
     51 CB         35.0490   31.8592    1.9236 C.3       8 UNK        -0.2000 
     52 C          32.9357   32.5472    3.1194 C.2       8 UNK         0.4948 
     53 O          33.2645   33.1213    4.1579 O.2       8 UNK        -0.5275 
     54 N          31.8759   31.7264    3.0146 N.am      9 UNK        -0.4246 
     55 CA         30.9452   31.3287    4.0801 C.3       9 UNK         0.0261 
     56 CB         30.0873   32.5257    4.5388 C.3       9 UNK        -0.1959 
     57 C          31.6302   30.5915    5.2502 C.2       9 UNK         0.5033 
     58 O          31.1627   30.6673    6.3876 O.2       9 UNK        -0.5390 
     59 N          32.7144   29.8758    4.9387 N.am      10 UNK        -0.4215 
     60 CA         33.5264   29.0632    5.8336 C.3       10 UNK         0.0240 
     61 CB         34.4377   29.9608    6.6921 C.3       10 UNK        -0.1982 
     62 C          34.3500   28.1113    4.9598 C.2       10 UNK         0.4970 
     63 O          34.5008   28.3647    3.7604 O.2       10 UNK        -0.4916 
     64 N          34.8657   27.0413    5.5734 N.am      11 UNK        -0.4279 
     65 CA         35.5982   25.9644    4.8863 C.3       11 UNK         0.1003 
     66 C          37.0107   26.3513    4.3566 C.2       11 UNK         0.5709 
     67 N          37.5813   27.4858    4.7445 N.am      11 UNK        -0.7358 
     68 O          37.5980   25.6062    3.5757 O.2       11 UNK        -0.4999 
     69 C69        35.6682   24.6645    5.7341 C.3       12 UNK        -0.0954 
     70 S70        34.1082   24.1567    6.5381 S.3       12 UNK        -0.2268 
     71 C71        33.0222   23.7718    5.1263 C.3       12 UNK         0.0203 
     72 H72        28.8661   24.3255    4.7136 H         1 UNK         0.0888 
     73 H73        28.1031   22.7573    4.9449 H         1 UNK         0.0888 
     74 H74        29.8308   22.9456    5.2548 H         1 UNK         0.0888 
     75 H75        29.6113   24.8187    2.6335 H         1 UNK         0.3017 
     76 H76        30.2346   22.7558    0.6866 H         1 UNK         0.0873 
     77 H77        30.6327   24.6951   -0.8773 H         1 UNK         0.0745 
     78 H78        31.6387   24.6289    0.5215 H         1 UNK         0.0745 
     79 H79        32.5345   26.7650    1.0519 H         1 UNK         0.0705 
     80 H80        31.6429   28.1741    1.5538 H         1 UNK         0.0705 
     81 H81        32.9773   24.9901    2.6746 H         1 UNK         0.1334 
     82 H82        31.2014   25.1851    6.5727 H         1 UNK         0.1417 
     83 H83        30.1367   28.0586    3.5781 H         1 UNK         0.1562 
     84 H84        29.7400   28.3708    6.2583 H         1 UNK         0.0748 
     85 H85        29.6330   26.8666    7.1228 H         1 UNK         0.0748 
     86 H86        28.3282   29.2223    4.6451 H         1 UNK         0.0940 
     87 H87        26.6251   29.0275    4.9091 H         1 UNK         0.0940 
     88 H88        28.1526   27.5711    2.6798 H         1 UNK         0.0703 
     89 H89        25.4927   27.2336    3.5791 H         1 UNK         0.3081 
     90 H90        24.3044   25.4585    2.3578 H         1 UNK         0.0719 
     91 H91        22.2640   26.7378    1.6042 H         1 UNK         0.0809 
     92 H92        23.3118   27.7894    2.5332 H         1 UNK         0.0809 
     93 H93        23.2892   27.9105    0.7802 H         1 UNK         0.0809 
     94 H94        25.0671   25.5964   -0.3724 H         1 UNK         0.2990 
     95 H95        22.7791   23.0177   -1.4413 H         1 UNK         0.0690 
     96 H96        23.1384   24.2931   -3.5451 H         1 UNK         0.0788 
     97 H97        23.7307   25.6758   -2.6256 H         1 UNK         0.0788 
     98 H98        22.0695   25.1449   -2.4420 H         1 UNK         0.0788 
     99 H99        24.7930   22.2008   -1.5748 H         1 UNK         0.2993 
    100 H100       26.8838   21.8486   -1.5835 H         1 UNK         0.0949 
    101 H101       28.4331   21.9188   -3.5086 H         1 UNK         0.0767 
    102 H102       26.8185   22.3511   -4.0444 H         1 UNK         0.0767 
    103 H103       28.0267   23.6081   -3.8188 H         1 UNK         0.0767 
    104 H104       29.2426   23.2152   -1.6037 H         1 UNK         0.3013 
    105 H105       29.0331   29.0281    1.2834 H         1 UNK         0.3121 
    106 H106       27.8519   31.6575    0.7947 H         1 UNK         0.0774 
    107 H107       28.0903   29.5046   -1.3980 H         1 UNK         0.0815 
    108 H108       27.6009   31.1753   -1.6562 H         1 UNK         0.0815 
    109 H109       26.5705   30.0961   -0.7367 H         1 UNK         0.0815 
    110 H110       29.2350   32.6158   -1.1161 H         1 UNK         0.2987 
    111 H111       31.1407   33.5494   -1.7511 H         1 UNK         0.0949 
    112 H112       32.3303   30.7345   -1.4132 H         1 UNK         0.0806 
    113 H113       31.6168   31.4151   -2.8657 H         1 UNK         0.0806 
    114 H114       33.1136   32.0777   -2.2405 H         1 UNK         0.0806 
    115 H115       33.2755   31.5952    0.1553 H         1 UNK         0.3010 
    116 H116       34.1169   33.7948    1.8434 H         1 UNK         0.0829 
    117 H117       34.7925   30.7987    1.9324 H         1 UNK         0.0813 
    118 H118       35.7102   32.0391    1.0758 H         1 UNK         0.0813 
    119 H119       35.6241   32.0603    2.8288 H         1 UNK         0.0813 
    120 H120       31.6823   31.3120    2.1050 H         1 UNK         0.3038 
    121 H121       30.2701   30.6029    3.6256 H         1 UNK         0.0769 
    122 H122       29.3017   32.2054    5.2243 H         1 UNK         0.0811 
    123 H123       30.6853   33.2757    5.0573 H         1 UNK         0.0811 
    124 H124       29.5998   33.0103    3.6928 H         1 UNK         0.0811 
    125 H125       33.0202   29.8279    3.9738 H         1 UNK         0.3204 
    126 H126       32.8675   28.4720    6.4731 H         1 UNK         0.0748 
    127 H127       35.0655   29.3667    7.3572 H         1 UNK         0.0771 
    128 H128       35.0973   30.5707    6.0732 H         1 UNK         0.0771 
    129 H129       33.8544   30.6351    7.3194 H         1 UNK         0.0771 
    130 H130       34.7004   26.9014    6.5588 H         1 UNK         0.2980 
    131 H131       35.0243   25.7247    3.9908 H         1 UNK         0.0545 
    132 H132       37.1051   28.1052    5.3795 H         1 UNK         0.3459 
    133 H133       38.4942   27.7255    4.3915 H         1 UNK         0.3459 
    134 H134       36.0172   23.8318    5.1206 H         1 UNK         0.0616 
    135 H135       36.4072   24.7803    6.5291 H         1 UNK         0.0616 
    136 H136       32.3369   22.9773    5.4236 H         1 UNK         0.0634 
    137 H137       33.6167   23.3708    4.3041 H         1 UNK         0.0634 
@<TRIPOS>BOND
     1    1    2 1    
     2    1   72 1    
     3    1   73 1    
     4    1   74 1    
     5    2    3 2    
     6    2    4 am   BACKBONE|DICT|INTERRES
     7    4    5 1    
     8    4   75 1    
     9    5    6 1    
    10    5   35 1    
    11    5   76 1    
    12    6    7 1    
    13    6   77 1    
    14    6   78 1    
    15    7    8 1    
    16    8    9 1    
    17    8   79 1    
    18    8   80 1    
    19    9   10 ar   
    20    9   14 ar   
    21   10   11 ar   
    22   10   81 1    
    23   11   12 ar   
    24   11   71 1    
    25   12   13 ar   
    26   12   82 1    
    27   13   14 ar   
    28   13   15 1    
    29   14   83 1    
    30   15   16 1    
    31   15   84 1    
    32   15   85 1    
    33   16   17 1    
    34   17   18 1    
    35   17   86 1    
    36   17   87 1    
    37   18   19 1    
    38   18   37 1    
    39   18   88 1    
    40   19   20 am   BACKBONE|DICT|INTERRES
    41   19   89 1    
    42   20   21 2    
    43   20   22 1    
    44   22   23 1    
    45   22   24 1    
    46   22   90 1    
    47   23   91 1    
    48   23   92 1    
    49   23   93 1    
    50   24   25 am   BACKBONE|DICT|INTERRES
    51   24   94 1    
    52   25   26 2    
    53   25   27 1    
    54   27   28 1    
    55   27   29 1    
    56   27   95 1    
    57   28   96 1    
    58   28   97 1    
    59   28   98 1    
    60   29   30 am   BACKBONE|DICT|INTERRES
    61   29   99 1    
    62   30   31 2    
    63   30   32 1    
    64   32   33 1    
    65   32   34 1    
    66   32  100 1    
    67   33  101 1    
    68   33  102 1    
    69   33  103 1    
    70   34   35 am   BACKBONE|DICT|INTERRES
    71   34  104 1    
    72   35   36 2    
    73   37   38 2    
    74   37   39 am   BACKBONE|DICT|INTERRES
    75   39   40 1    
    76   39  105 1    
    77   40   41 1    
    78   40   42 1    
    79   40  106 1    
    80   41  107 1    
    81   41  108 1    
    82   41  109 1    
    83   42   43 2    
    84   42   44 am   BACKBONE|DICT|INTERRES
    85   44   45 1    
    86   44  110 1    
    87   45   46 1    
    88   45   47 1    
    89   45  111 1    
    90   46  112 1    
    91   46  113 1    
    92   46  114 1    
    93   47   48 2    
    94   47   49 am   BACKBONE|DICT|INTERRES
    95   49   50 1    
    96   49  115 1    
    97   50   51 1    
    98   50   52 1    
    99   50  116 1    
   100   51  117 1    
   101   51  118 1    
   102   51  119 1    
   103   52   53 2    
   104   52   54 am   BACKBONE|DICT|INTERRES
   105   54   55 1    
   106   54  120 1    
   107   55   56 1    
   108   55   57 1    
   109   55  121 1    
   110   56  122 1    
   111   56  123 1    
   112   56  124 1    
   113   57   58 2    
   114   57   59 am   BACKBONE|DICT|INTERRES
   115   59   60 1    
   116   59  125 1    
   117   60   61 1    
   118   60   62 1    
   119   60  126 1    
   120   61  127 1    
   121   61  128 1    
   122   61  129 1    
   123   62   63 2    
   124   62   64 am   BACKBONE|DICT|INTERRES
   125   64   65 1    
   126   64  130 1    
   127   65   66 1    
   128   65   69 1    
   129   65  131 1    
   130   66   67 am   BACKBONE|DICT|INTERRES
   131   66   68 2    
   132   67  132 1    
   133   67  133 1    
   134   69   70 1    
   135   69  134 1    
   136   69  135 1    
   137   70   71 1    
   138   71  136 1    
   139   71  137 1    
@<TRIPOS>SUBSTRUCTURE
     1 UNK         1 GROUP             0       ****    0 ROOT    
