@<TRIPOS>MOLECULE
3R136
137   139    1
SMALL
USER_CHARGES


@<TRIPOS>ATOM
      1 CA         34.2000   25.4005    0.2669 C.3       0 UNK        -0.1979 
      2 C          32.8420   26.0600    0.0793 C.2       0 UNK         0.4864 
      3 O          32.7388   27.2827    0.1818 O.2       0 UNK        -0.5359 
      4 N          31.8053   25.2562   -0.1922 N.am      1 UNK        -0.4318 
      5 CA         30.4325   25.6996   -0.4459 C.3       1 UNK         0.0824 
      6 C6         29.4385   24.5068   -0.4508 C.3       12 UNK        -0.0944 
      7 S7         28.8516   24.1045    1.2191 S.3       12 UNK        -0.2672 
      8 C8         30.0048   22.8160    1.7751 C.3       12 UNK         0.0333 
      9 C9         30.4939   23.1228    3.1816 C.ar      12 UNK        -0.0807 
     10 C10        31.8462   23.3793    3.4198 C.ar      12 UNK        -0.0894 
     11 C11        32.2954   23.6796    4.7091 C.ar      12 UNK        -0.0804 
     12 C12        31.3770   23.7408    5.7625 C.ar      12 UNK        -0.0824 
     13 C13        30.0212   23.4761    5.5374 C.ar      12 UNK        -0.0762 
     14 C14        29.5897   23.1558    4.2477 C.ar      12 UNK        -0.0782 
     15 C15        29.0287   23.5072    6.6911 C.3       12 UNK         0.0230 
     16 S16        28.2326   25.1362    6.8692 S.3       12 UNK        -0.2608 
     17 C17        26.8959   25.0839    5.6208 C.3       12 UNK        -0.0989 
     18 CA         27.1333   26.0364    4.4199 C.3       5 UNK         0.0716 
     19 N          26.2904   25.6706    3.2676 N.am      5 UNK        -0.4135 
     20 C          26.2715   26.2894    2.0764 C.2       4 UNK         0.5031 
     21 O          26.9287   27.2999    1.8121 O.2       4 UNK        -0.5229 
     22 CA         25.3482   25.7024    1.0008 C.3       4 UNK         0.0329 
     23 CB         23.8650   25.8755    1.3812 C.3       4 UNK        -0.2001 
     24 N          25.6211   26.3991   -0.2541 N.am      4 UNK        -0.4303 
     25 C          25.3793   25.9442   -1.4889 C.2       3 UNK         0.5044 
     26 O          24.8703   24.8501   -1.7325 O.2       3 UNK        -0.5152 
     27 CA         25.7915   26.8624   -2.6480 C.3       3 UNK         0.0319 
     28 CB         24.7667   27.9988   -2.8355 C.3       3 UNK        -0.2001 
     29 N          27.1361   27.3980   -2.4270 N.am      3 UNK        -0.4354 
     30 C          27.9216   27.9594   -3.3582 C.2       2 UNK         0.4964 
     31 O          27.5879   28.1190   -4.5325 O.2       2 UNK        -0.5047 
     32 CA         29.3223   28.4189   -2.9078 C.3       2 UNK         0.0288 
     33 CB         29.3190   29.9250   -2.6038 C.3       2 UNK        -0.2113 
     34 N          29.7839   27.6851   -1.7259 N.am      2 UNK        -0.4145 
     35 C          30.3335   26.4637   -1.7781 C.2       1 UNK         0.5006 
     36 O          30.6815   25.9071   -2.8224 O.2       1 UNK        -0.5103 
     37 C          27.0001   27.5222    4.8320 C.2       5 UNK         0.5055 
     38 O          27.9996   28.1550    5.1725 O.2       5 UNK        -0.5220 
     39 N          25.7833   28.0762    4.7220 N.am      6 UNK        -0.4450 
     40 CA         25.4794   29.4927    4.9552 C.3       6 UNK         0.0367 
     41 CB         23.9561   29.6920    4.8947 C.3       6 UNK        -0.1929 
     42 C          26.1846   30.4661    3.9868 C.2       6 UNK         0.5070 
     43 O          26.3151   31.6446    4.3184 O.2       6 UNK        -0.5237 
     44 N          26.6228   29.9695    2.8225 N.am      7 UNK        -0.4739 
     45 CA         27.3536   30.7145    1.7979 C.3       7 UNK         0.0276 
     46 CB         26.5717   30.6198    0.4749 C.3       7 UNK        -0.1927 
     47 C          28.7927   30.1941    1.6248 C.2       7 UNK         0.5013 
     48 O          29.4756   30.6352    0.6990 O.2       7 UNK        -0.5193 
     49 N          29.2511   29.2708    2.4848 N.am      8 UNK        -0.4253 
     50 CA         30.5894   28.6773    2.4313 C.3       8 UNK         0.0242 
     51 CB         30.5835   27.3069    3.1349 C.3       8 UNK        -0.2000 
     52 C          31.6461   29.6327    3.0088 C.2       8 UNK         0.4948 
     53 O          32.2172   29.3607    4.0647 O.2       8 UNK        -0.5275 
     54 N          31.8821   30.7492    2.3062 N.am      9 UNK        -0.4246 
     55 CA         32.7949   31.8323    2.6912 C.3       9 UNK         0.0261 
     56 CB         32.7360   32.9444    1.6321 C.3       9 UNK        -0.1959 
     57 C          34.2492   31.3856    2.9256 C.2       9 UNK         0.5033 
     58 O          34.9260   31.9591    3.7800 O.2       9 UNK        -0.5390 
     59 N          34.6887   30.3466    2.2018 N.am      10 UNK        -0.4215 
     60 CA         35.9900   29.6962    2.3761 C.3       10 UNK         0.0240 
     61 CB         36.2392   28.7552    1.1862 C.3       10 UNK        -0.1982 
     62 C          36.1286   28.9286    3.7064 C.2       10 UNK         0.4970 
     63 O          37.2574   28.6891    4.1370 O.2       10 UNK        -0.4916 
     64 N          35.0001   28.5587    4.3243 N.am      11 UNK        -0.4279 
     65 CA         34.9189   27.8371    5.6023 C.3       11 UNK         0.1003 
     66 C          34.6448   28.7748    6.8140 C.2       11 UNK         0.5709 
     67 N          34.5765   30.0910    6.6434 N.am      11 UNK        -0.7358 
     68 O          34.5193   28.3025    7.9415 O.2       11 UNK        -0.4999 
     69 C69        33.8933   26.6734    5.5201 C.3       12 UNK        -0.0954 
     70 S70        34.3621   25.4632    4.2378 S.3       12 UNK        -0.2268 
     71 C71        33.7804   23.8988    4.9566 C.3       12 UNK         0.0203 
     72 H72        34.5978   25.6367    1.2526 H         1 UNK         0.0888 
     73 H73        34.1447   24.3160    0.1765 H         1 UNK         0.0888 
     74 H74        34.9018   25.7692   -0.4805 H         1 UNK         0.0888 
     75 H75        31.9684   24.2669   -0.3035 H         1 UNK         0.3017 
     76 H76        30.1521   26.3876    0.3530 H         1 UNK         0.0873 
     77 H77        28.5373   24.7422   -1.0218 H         1 UNK         0.0745 
     78 H78        29.8646   23.6247   -0.9323 H         1 UNK         0.0745 
     79 H79        29.4975   21.8504    1.7650 H         1 UNK         0.0705 
     80 H80        30.8443   22.7331    1.0843 H         1 UNK         0.0705 
     81 H81        32.5553   23.3452    2.6041 H         1 UNK         0.1334 
     82 H82        31.7190   23.9785    6.7606 H         1 UNK         0.1417 
     83 H83        28.5450   22.9475    4.0639 H         1 UNK         0.1562 
     84 H84        29.5449   23.2736    7.6236 H         1 UNK         0.0748 
     85 H85        28.2728   22.7301    6.5686 H         1 UNK         0.0748 
     86 H86        25.9506   25.3143    6.1163 H         1 UNK         0.0940 
     87 H87        26.7923   24.0570    5.2693 H         1 UNK         0.0940 
     88 H88        28.1618   25.8916    4.0864 H         1 UNK         0.0703 
     89 H89        25.7115   24.8522    3.3857 H         1 UNK         0.3081 
     90 H90        25.5864   24.6427    0.8861 H         1 UNK         0.0719 
     91 H91        23.6065   26.9258    1.5234 H         1 UNK         0.0809 
     92 H92        23.2087   25.4744    0.6086 H         1 UNK         0.0809 
     93 H93        23.6251   25.3498    2.3058 H         1 UNK         0.0809 
     94 H94        26.0602   27.2996   -0.1158 H         1 UNK         0.2990 
     95 H95        25.8097   26.2548   -3.5554 H         1 UNK         0.0690 
     96 H96        24.9789   28.5860   -3.7288 H         1 UNK         0.0788 
     97 H97        24.7570   28.6798   -1.9837 H         1 UNK         0.0788 
     98 H98        23.7575   27.5997   -2.9473 H         1 UNK         0.0788 
     99 H99        27.5198   27.2575   -1.5050 H         1 UNK         0.2993 
    100 H100       30.0139   28.2404   -3.7345 H         1 UNK         0.0949 
    101 H101       30.3010   30.2683   -2.2773 H         1 UNK         0.0767 
    102 H102       29.0515   30.5007   -3.4909 H         1 UNK         0.0767 
    103 H103       28.6004   30.1776   -1.8245 H         1 UNK         0.0767 
    104 H104       29.5906   28.1072   -0.8286 H         1 UNK         0.3013 
    105 H105       25.0167   27.4923    4.4216 H         1 UNK         0.3121 
    106 H106       25.8183   29.7411    5.9632 H         1 UNK         0.0774 
    107 H107       23.6901   30.7306    5.0967 H         1 UNK         0.0815 
    108 H108       23.5548   29.4390    3.9124 H         1 UNK         0.0815 
    109 H109       23.4440   29.0797    5.6372 H         1 UNK         0.0815 
    110 H110       26.5154   28.9760    2.6350 H         1 UNK         0.2987 
    111 H111       27.4330   31.7680    2.0739 H         1 UNK         0.0949 
    112 H112       26.5385   29.5977    0.0973 H         1 UNK         0.0806 
    113 H113       25.5452   30.9661    0.5957 H         1 UNK         0.0806 
    114 H114       27.0296   31.2406   -0.2959 H         1 UNK         0.0806 
    115 H115       28.6588   28.9797    3.2534 H         1 UNK         0.3010 
    116 H116       30.8462   28.5073    1.3855 H         1 UNK         0.0829 
    117 H117       29.8466   26.6375    2.6942 H         1 UNK         0.0813 
    118 H118       31.5547   26.8183    3.0432 H         1 UNK         0.0813 
    119 H119       30.3656   27.3941    4.1996 H         1 UNK         0.0813 
    120 H120       31.3111   30.8990    1.4793 H         1 UNK         0.3038 
    121 H121       32.4280   32.2395    3.6356 H         1 UNK         0.0769 
    122 H122       33.0568   32.5869    0.6528 H         1 UNK         0.0811 
    123 H123       33.3849   33.7782    1.9043 H         1 UNK         0.0811 
    124 H124       31.7261   33.3422    1.5297 H         1 UNK         0.0811 
    125 H125       34.0576   29.9321    1.5303 H         1 UNK         0.3204 
    126 H126       36.7588   30.4718    2.3671 H         1 UNK         0.0748 
    127 H127       36.2386   29.2995    0.2416 H         1 UNK         0.0771 
    128 H128       37.2075   28.2600    1.2730 H         1 UNK         0.0771 
    129 H129       35.4784   27.9767    1.1255 H         1 UNK         0.0771 
    130 H130       34.1010   28.8410    3.9469 H         1 UNK         0.2980 
    131 H131       35.8903   27.3876    5.8149 H         1 UNK         0.0545 
    132 H132       34.4070   30.6828    7.4407 H         1 UNK         0.3459 
    133 H133       34.6853   30.4971    5.7258 H         1 UNK         0.3459 
    134 H134       32.8922   27.0471    5.3004 H         1 UNK         0.0616 
    135 H135       33.8249   26.1581    6.4793 H         1 UNK         0.0616 
    136 H136       34.3377   23.0809    4.4978 H         1 UNK         0.0634 
    137 H137       34.0158   23.8638    6.0212 H         1 UNK         0.0634 
@<TRIPOS>BOND
     1    1    2 1    
     2    1   72 1    
     3    1   73 1    
     4    1   74 1    
     5    2    3 2    
     6    2    4 am   BACKBONE|DICT|INTERRES
     7    4    5 1    
     8    4   75 1    
     9    5    6 1    
    10    5   35 1    
    11    5   76 1    
    12    6    7 1    
    13    6   77 1    
    14    6   78 1    
    15    7    8 1    
    16    8    9 1    
    17    8   79 1    
    18    8   80 1    
    19    9   10 ar   
    20    9   14 ar   
    21   10   11 ar   
    22   10   81 1    
    23   11   12 ar   
    24   11   71 1    
    25   12   13 ar   
    26   12   82 1    
    27   13   14 ar   
    28   13   15 1    
    29   14   83 1    
    30   15   16 1    
    31   15   84 1    
    32   15   85 1    
    33   16   17 1    
    34   17   18 1    
    35   17   86 1    
    36   17   87 1    
    37   18   19 1    
    38   18   37 1    
    39   18   88 1    
    40   19   20 am   BACKBONE|DICT|INTERRES
    41   19   89 1    
    42   20   21 2    
    43   20   22 1    
    44   22   23 1    
    45   22   24 1    
    46   22   90 1    
    47   23   91 1    
    48   23   92 1    
    49   23   93 1    
    50   24   25 am   BACKBONE|DICT|INTERRES
    51   24   94 1    
    52   25   26 2    
    53   25   27 1    
    54   27   28 1    
    55   27   29 1    
    56   27   95 1    
    57   28   96 1    
    58   28   97 1    
    59   28   98 1    
    60   29   30 am   BACKBONE|DICT|INTERRES
    61   29   99 1    
    62   30   31 2    
    63   30   32 1    
    64   32   33 1    
    65   32   34 1    
    66   32  100 1    
    67   33  101 1    
    68   33  102 1    
    69   33  103 1    
    70   34   35 am   BACKBONE|DICT|INTERRES
    71   34  104 1    
    72   35   36 2    
    73   37   38 2    
    74   37   39 am   BACKBONE|DICT|INTERRES
    75   39   40 1    
    76   39  105 1    
    77   40   41 1    
    78   40   42 1    
    79   40  106 1    
    80   41  107 1    
    81   41  108 1    
    82   41  109 1    
    83   42   43 2    
    84   42   44 am   BACKBONE|DICT|INTERRES
    85   44   45 1    
    86   44  110 1    
    87   45   46 1    
    88   45   47 1    
    89   45  111 1    
    90   46  112 1    
    91   46  113 1    
    92   46  114 1    
    93   47   48 2    
    94   47   49 am   BACKBONE|DICT|INTERRES
    95   49   50 1    
    96   49  115 1    
    97   50   51 1    
    98   50   52 1    
    99   50  116 1    
   100   51  117 1    
   101   51  118 1    
   102   51  119 1    
   103   52   53 2    
   104   52   54 am   BACKBONE|DICT|INTERRES
   105   54   55 1    
   106   54  120 1    
   107   55   56 1    
   108   55   57 1    
   109   55  121 1    
   110   56  122 1    
   111   56  123 1    
   112   56  124 1    
   113   57   58 2    
   114   57   59 am   BACKBONE|DICT|INTERRES
   115   59   60 1    
   116   59  125 1    
   117   60   61 1    
   118   60   62 1    
   119   60  126 1    
   120   61  127 1    
   121   61  128 1    
   122   61  129 1    
   123   62   63 2    
   124   62   64 am   BACKBONE|DICT|INTERRES
   125   64   65 1    
   126   64  130 1    
   127   65   66 1    
   128   65   69 1    
   129   65  131 1    
   130   66   67 am   BACKBONE|DICT|INTERRES
   131   66   68 2    
   132   67  132 1    
   133   67  133 1    
   134   69   70 1    
   135   69  134 1    
   136   69  135 1    
   137   70   71 1    
   138   71  136 1    
   139   71  137 1    
@<TRIPOS>SUBSTRUCTURE
     1 UNK         1 GROUP             0       ****    0 ROOT    
