@<TRIPOS>MOLECULE
3R136
137   139    1
SMALL
USER_CHARGES


@<TRIPOS>ATOM
      1 CA         25.6393   17.3476   -1.0217 C.3       0 UNK        -0.1979 
      2 C          26.8230   18.1696   -0.5330 C.2       0 UNK         0.4864 
      3 O          27.7764   17.6075    0.0080 O.2       0 UNK        -0.5359 
      4 N          26.7701   19.4921   -0.7206 N.am      1 UNK        -0.4318 
      5 CA         27.8128   20.4488   -0.3565 C.3       1 UNK         0.0824 
      6 C6         27.7645   20.8214    1.1526 C.3       12 UNK        -0.0944 
      7 S7         29.4018   21.2257    1.8538 S.3       12 UNK        -0.2672 
      8 C8         29.3128   23.0355    2.0148 C.3       12 UNK         0.0333 
      9 C9         30.3814   23.5746    2.9506 C.ar      12 UNK        -0.0807 
     10 C10        31.7126   23.6594    2.5287 C.ar      12 UNK        -0.0894 
     11 C11        32.6969   24.1686    3.3824 C.ar      12 UNK        -0.0804 
     12 C12        32.3405   24.5854    4.6675 C.ar      12 UNK        -0.0824 
     13 C13        31.0115   24.5152    5.0954 C.ar      12 UNK        -0.0762 
     14 C14        30.0356   24.0059    4.2348 C.ar      12 UNK        -0.0782 
     15 C15        30.6431   24.9713    6.4978 C.3       12 UNK         0.0230 
     16 S16        30.7171   26.7818    6.6582 S.3       12 UNK        -0.2608 
     17 C17        29.1310   27.3223    5.9361 C.3       12 UNK        -0.0989 
     18 CA         29.3496   28.3701    4.8145 C.3       5 UNK         0.0716 
     19 N          29.6150   27.7652    3.5044 N.am      5 UNK        -0.4135 
     20 C          30.0652   28.4520    2.4438 C.2       4 UNK         0.5031 
     21 O          30.3866   29.6396    2.4862 O.2       4 UNK        -0.5229 
     22 CA         30.1535   27.7073    1.1012 C.3       4 UNK         0.0329 
     23 CB         31.5225   27.0378    0.9481 C.3       4 UNK        -0.2001 
     24 N          29.1048   26.7075    0.8803 N.am      4 UNK        -0.4303 
     25 C          27.7875   26.9552    0.8420 C.2       3 UNK         0.5044 
     26 O          27.2995   28.0513    1.1148 O.2       3 UNK        -0.5152 
     27 CA         26.8623   25.7794    0.4611 C.3       3 UNK         0.0319 
     28 CB         25.5386   26.2527   -0.1757 C.3       3 UNK        -0.2001 
     29 N          27.5122   24.7572   -0.3739 N.am      3 UNK        -0.4354 
     30 C          28.0289   24.9033   -1.6055 C.2       2 UNK         0.4964 
     31 O          27.9805   25.9530   -2.2465 O.2       2 UNK        -0.5047 
     32 CA         28.7691   23.6932   -2.2178 C.3       2 UNK         0.0288 
     33 CB         30.2467   24.0442   -2.4700 C.3       2 UNK        -0.2113 
     34 N          28.7197   22.4648   -1.4132 N.am      2 UNK        -0.4145 
     35 C          27.6463   21.6783   -1.2665 C.2       1 UNK         0.5006 
     36 O          26.5533   21.9086   -1.7926 O.2       1 UNK        -0.5103 
     37 C          28.1906   29.3874    4.7519 C.2       5 UNK         0.5055 
     38 O          28.3176   30.4774    5.3127 O.2       5 UNK        -0.5220 
     39 N          27.1025   29.0335    4.0513 N.am      6 UNK        -0.4450 
     40 CA         25.9429   29.9040    3.8367 C.3       6 UNK         0.0367 
     41 CB         24.7616   29.0794    3.3012 C.3       6 UNK        -0.1929 
     42 C          26.2607   31.0784    2.8972 C.2       6 UNK         0.5070 
     43 O          25.7860   32.1899    3.1336 O.2       6 UNK        -0.5237 
     44 N          27.0937   30.8315    1.8775 N.am      7 UNK        -0.4739 
     45 CA         27.6022   31.8143    0.9158 C.3       7 UNK         0.0276 
     46 CB         28.1004   31.0679   -0.3352 C.3       7 UNK        -0.1927 
     47 C          28.6804   32.7425    1.5178 C.2       7 UNK         0.5013 
     48 O          29.7714   32.8653    0.9588 O.2       7 UNK        -0.5193 
     49 N          28.3420   33.3868    2.6435 N.am      8 UNK        -0.4253 
     50 CA         29.1297   34.3719    3.3934 C.3       8 UNK         0.0242 
     51 CB         29.2628   35.6803    2.5838 C.3       8 UNK        -0.2000 
     52 C          30.4867   33.8398    3.8990 C.2       8 UNK         0.4948 
     53 O          31.4668   34.5874    3.9014 O.2       8 UNK        -0.5275 
     54 N          30.5100   32.5718    4.3412 N.am      9 UNK        -0.4246 
     55 CA         31.6628   31.8560    4.9032 C.3       9 UNK         0.0261 
     56 CB         32.0306   32.4220    6.2913 C.3       9 UNK        -0.1959 
     57 C          32.8653   31.7894    3.9419 C.2       9 UNK         0.5033 
     58 O          33.9850   32.1352    4.3248 O.2       9 UNK        -0.5390 
     59 N          32.6202   31.3240    2.7099 N.am      10 UNK        -0.4215 
     60 CA         33.6223   31.1993    1.6452 C.3       10 UNK         0.0240 
     61 CB         32.9213   30.8676    0.3180 C.3       10 UNK        -0.1982 
     62 C          34.7455   30.1893    1.9534 C.2       10 UNK         0.4970 
     63 O          35.8568   30.3620    1.4514 O.2       10 UNK        -0.4916 
     64 N          34.4531   29.1858    2.7915 N.am      11 UNK        -0.4279 
     65 CA         35.4432   28.2675    3.3793 C.3       11 UNK         0.1003 
     66 C          36.2093   28.8592    4.6021 C.2       11 UNK         0.5709 
     67 N          35.9214   30.0679    5.0721 N.am      11 UNK        -0.7358 
     68 O          37.1070   28.2086    5.1321 O.2       11 UNK        -0.4999 
     69 C69        34.8099   26.8879    3.7105 C.3       12 UNK        -0.0954 
     70 S70        34.5374   25.8882    2.2112 S.3       12 UNK        -0.2268 
     71 C71        34.1449   24.2569    2.9204 C.3       12 UNK         0.0203 
     72 H72        25.9677   16.6211   -1.7645 H         1 UNK         0.0888 
     73 H73        25.1897   16.8060   -0.1899 H         1 UNK         0.0888 
     74 H74        24.8694   17.9718   -1.4751 H         1 UNK         0.0888 
     75 H75        25.9914   19.9159   -1.2121 H         1 UNK         0.3017 
     76 H76        28.7757   19.9901   -0.5939 H         1 UNK         0.0873 
     77 H77        27.0438   21.6163    1.3541 H         1 UNK         0.0745 
     78 H78        27.4068   19.9682    1.7313 H         1 UNK         0.0745 
     79 H79        29.4526   23.4872    1.0351 H         1 UNK         0.0705 
     80 H80        28.3219   23.3286    2.3652 H         1 UNK         0.0705 
     81 H81        31.9822   23.3304    1.5343 H         1 UNK         0.1334 
     82 H82        33.0966   24.9731    5.3363 H         1 UNK         0.1417 
     83 H83        29.0086   23.9382    4.5677 H         1 UNK         0.1562 
     84 H84        31.3431   24.5299    7.2087 H         1 UNK         0.0748 
     85 H85        29.6537   24.6132    6.7867 H         1 UNK         0.0748 
     86 H86        28.5520   27.7409    6.7625 H         1 UNK         0.0940 
     87 H87        28.5543   26.4696    5.5745 H         1 UNK         0.0940 
     88 H88        30.2345   28.9486    5.0770 H         1 UNK         0.0703 
     89 H89        29.4159   26.7824    3.3984 H         1 UNK         0.3081 
     90 H90        30.0576   28.4529    0.3108 H         1 UNK         0.0719 
     91 H91        32.3340   27.7507    1.0919 H         1 UNK         0.0809 
     92 H92        31.6491   26.5995   -0.0419 H         1 UNK         0.0809 
     93 H93        31.6564   26.2504    1.6866 H         1 UNK         0.0809 
     94 H94        29.4166   25.7808    0.6373 H         1 UNK         0.2990 
     95 H95        26.6113   25.2858    1.4009 H         1 UNK         0.0690 
     96 H96        24.8989   25.4093   -0.4352 H         1 UNK         0.0788 
     97 H97        25.7106   26.8352   -1.0814 H         1 UNK         0.0788 
     98 H98        24.9754   26.8844    0.5120 H         1 UNK         0.0788 
     99 H99        27.5629   23.8353    0.0310 H         1 UNK         0.2993 
    100 H100       28.2959   23.4890   -3.1810 H         1 UNK         0.0949 
    101 H101       30.7684   23.2290   -2.9721 H         1 UNK         0.0767 
    102 H102       30.3397   24.9232   -3.1098 H         1 UNK         0.0767 
    103 H103       30.7761   24.2609   -1.5412 H         1 UNK         0.0767 
    104 H104       29.5798   22.1919   -0.9583 H         1 UNK         0.3013 
    105 H105       27.1024   28.1526    3.5579 H         1 UNK         0.3121 
    106 H106       25.6520   30.3232    4.8025 H         1 UNK         0.0774 
    107 H107       24.9811   28.6384    2.3288 H         1 UNK         0.0815 
    108 H108       23.8761   29.7048    3.1801 H         1 UNK         0.0815 
    109 H109       24.4964   28.2730    3.9850 H         1 UNK         0.0815 
    110 H110       27.3904   29.8696    1.7332 H         1 UNK         0.2987 
    111 H111       26.7704   32.4526    0.6100 H         1 UNK         0.0949 
    112 H112       28.9681   30.4491   -0.1091 H         1 UNK         0.0806 
    113 H113       27.3264   30.4220   -0.7504 H         1 UNK         0.0806 
    114 H114       28.3946   31.7682   -1.1180 H         1 UNK         0.0806 
    115 H115       27.4178   33.1794    3.0153 H         1 UNK         0.3010 
    116 H116       28.5499   34.6003    4.2889 H         1 UNK         0.0829 
    117 H117       29.8770   35.5421    1.6932 H         1 UNK         0.0813 
    118 H118       28.2888   36.0518    2.2656 H         1 UNK         0.0813 
    119 H119       29.7274   36.4662    3.1805 H         1 UNK         0.0813 
    120 H120       29.6506   32.0366    4.2965 H         1 UNK         0.3038 
    121 H121       31.3437   30.8274    5.0520 H         1 UNK         0.0769 
    122 H122       32.8194   31.8303    6.7575 H         1 UNK         0.0811 
    123 H123       32.3900   33.4496    6.2284 H         1 UNK         0.0811 
    124 H124       31.1738   32.4060    6.9649 H         1 UNK         0.0811 
    125 H125       31.6813   30.9877    2.4984 H         1 UNK         0.3204 
    126 H126       34.0982   32.1760    1.5352 H         1 UNK         0.0748 
    127 H127       33.6430   30.7630   -0.4932 H         1 UNK         0.0771 
    128 H128       32.3559   29.9390    0.3769 H         1 UNK         0.0771 
    129 H129       32.2263   31.6582    0.0334 H         1 UNK         0.0771 
    130 H130       33.5162   29.1240    3.1583 H         1 UNK         0.2980 
    131 H131       36.2219   28.0948    2.6338 H         1 UNK         0.0545 
    132 H132       36.4456   30.4155    5.8588 H         1 UNK         0.3459 
    133 H133       35.2139   30.6595    4.6489 H         1 UNK         0.3459 
    134 H134       35.4558   26.3043    4.3691 H         1 UNK         0.0616 
    135 H135       33.8649   27.0161    4.2404 H         1 UNK         0.0616 
    136 H136       34.3367   23.4960    2.1625 H         1 UNK         0.0634 
    137 H137       34.8228   24.0366    3.7463 H         1 UNK         0.0634 
@<TRIPOS>BOND
     1    1    2 1    
     2    1   72 1    
     3    1   73 1    
     4    1   74 1    
     5    2    3 2    
     6    2    4 am   BACKBONE|DICT|INTERRES
     7    4    5 1    
     8    4   75 1    
     9    5    6 1    
    10    5   35 1    
    11    5   76 1    
    12    6    7 1    
    13    6   77 1    
    14    6   78 1    
    15    7    8 1    
    16    8    9 1    
    17    8   79 1    
    18    8   80 1    
    19    9   10 ar   
    20    9   14 ar   
    21   10   11 ar   
    22   10   81 1    
    23   11   12 ar   
    24   11   71 1    
    25   12   13 ar   
    26   12   82 1    
    27   13   14 ar   
    28   13   15 1    
    29   14   83 1    
    30   15   16 1    
    31   15   84 1    
    32   15   85 1    
    33   16   17 1    
    34   17   18 1    
    35   17   86 1    
    36   17   87 1    
    37   18   19 1    
    38   18   37 1    
    39   18   88 1    
    40   19   20 am   BACKBONE|DICT|INTERRES
    41   19   89 1    
    42   20   21 2    
    43   20   22 1    
    44   22   23 1    
    45   22   24 1    
    46   22   90 1    
    47   23   91 1    
    48   23   92 1    
    49   23   93 1    
    50   24   25 am   BACKBONE|DICT|INTERRES
    51   24   94 1    
    52   25   26 2    
    53   25   27 1    
    54   27   28 1    
    55   27   29 1    
    56   27   95 1    
    57   28   96 1    
    58   28   97 1    
    59   28   98 1    
    60   29   30 am   BACKBONE|DICT|INTERRES
    61   29   99 1    
    62   30   31 2    
    63   30   32 1    
    64   32   33 1    
    65   32   34 1    
    66   32  100 1    
    67   33  101 1    
    68   33  102 1    
    69   33  103 1    
    70   34   35 am   BACKBONE|DICT|INTERRES
    71   34  104 1    
    72   35   36 2    
    73   37   38 2    
    74   37   39 am   BACKBONE|DICT|INTERRES
    75   39   40 1    
    76   39  105 1    
    77   40   41 1    
    78   40   42 1    
    79   40  106 1    
    80   41  107 1    
    81   41  108 1    
    82   41  109 1    
    83   42   43 2    
    84   42   44 am   BACKBONE|DICT|INTERRES
    85   44   45 1    
    86   44  110 1    
    87   45   46 1    
    88   45   47 1    
    89   45  111 1    
    90   46  112 1    
    91   46  113 1    
    92   46  114 1    
    93   47   48 2    
    94   47   49 am   BACKBONE|DICT|INTERRES
    95   49   50 1    
    96   49  115 1    
    97   50   51 1    
    98   50   52 1    
    99   50  116 1    
   100   51  117 1    
   101   51  118 1    
   102   51  119 1    
   103   52   53 2    
   104   52   54 am   BACKBONE|DICT|INTERRES
   105   54   55 1    
   106   54  120 1    
   107   55   56 1    
   108   55   57 1    
   109   55  121 1    
   110   56  122 1    
   111   56  123 1    
   112   56  124 1    
   113   57   58 2    
   114   57   59 am   BACKBONE|DICT|INTERRES
   115   59   60 1    
   116   59  125 1    
   117   60   61 1    
   118   60   62 1    
   119   60  126 1    
   120   61  127 1    
   121   61  128 1    
   122   61  129 1    
   123   62   63 2    
   124   62   64 am   BACKBONE|DICT|INTERRES
   125   64   65 1    
   126   64  130 1    
   127   65   66 1    
   128   65   69 1    
   129   65  131 1    
   130   66   67 am   BACKBONE|DICT|INTERRES
   131   66   68 2    
   132   67  132 1    
   133   67  133 1    
   134   69   70 1    
   135   69  134 1    
   136   69  135 1    
   137   70   71 1    
   138   71  136 1    
   139   71  137 1    
@<TRIPOS>SUBSTRUCTURE
     1 UNK         1 GROUP             0       ****    0 ROOT    
