@<TRIPOS>MOLECULE
3R136
137   139    1
SMALL
USER_CHARGES


@<TRIPOS>ATOM
      1 CA         26.9366   22.0386   -2.8904 C.3       0 UNK        -0.1979 
      2 C          27.8443   23.0941   -2.2783 C.2       0 UNK         0.4864 
      3 O          27.3561   24.1477   -1.8649 O.2       0 UNK        -0.5359 
      4 N          29.1564   22.8196   -2.2212 N.am      1 UNK        -0.4318 
      5 CA         30.2115   23.6836   -1.6713 C.3       1 UNK         0.0824 
      6 C6         30.1096   23.8695   -0.1287 C.3       12 UNK        -0.0944 
      7 S7         30.2690   22.2696    0.7318 S.3       12 UNK        -0.2672 
      8 C8         31.7895   22.5067    1.7081 C.3       12 UNK         0.0333 
      9 C9         31.5365   23.3108    2.9766 C.ar      12 UNK        -0.0807 
     10 C10        32.2359   24.4972    3.2243 C.ar      12 UNK        -0.0894 
     11 C11        32.0187   25.2107    4.4082 C.ar      12 UNK        -0.0804 
     12 C12        31.0891   24.7397    5.3397 C.ar      12 UNK        -0.0824 
     13 C13        30.3807   23.5606    5.0986 C.ar      12 UNK        -0.0762 
     14 C14        30.6170   22.8460    3.9222 C.ar      12 UNK        -0.0782 
     15 C15        29.3598   23.0520    6.1030 C.3       12 UNK         0.0230 
     16 S16        27.6622   23.4297    5.5679 S.3       12 UNK        -0.2608 
     17 C17        27.5469   25.2225    5.8995 C.3       12 UNK        -0.0989 
     18 CA         27.7321   26.1127    4.6417 C.3       5 UNK         0.0716 
     19 N          26.9033   25.6553    3.5188 N.am      5 UNK        -0.4135 
     20 C          26.8305   26.1991    2.2965 C.2       4 UNK         0.5031 
     21 O          27.3774   27.2596    1.9851 O.2       4 UNK        -0.5229 
     22 CA         26.0232   25.3844    1.2673 C.3       4 UNK         0.0329 
     23 CB         24.5641   25.1564    1.7214 C.3       4 UNK        -0.2001 
     24 N          26.0748   25.9298   -0.0944 N.am      4 UNK        -0.4303 
     25 C          25.5272   27.0617   -0.5622 C.2       3 UNK         0.5044 
     26 O          24.8323   27.8290    0.1066 O.2       3 UNK        -0.5152 
     27 CA         25.7801   27.3475   -2.0556 C.3       3 UNK         0.0319 
     28 CB         25.2244   28.7068   -2.5353 C.3       3 UNK        -0.2001 
     29 N          27.1903   27.1672   -2.4248 N.am      3 UNK        -0.4354 
     30 C          28.2389   27.9318   -2.0819 C.2       2 UNK         0.4964 
     31 O          28.1650   28.9757   -1.4362 O.2       2 UNK        -0.5047 
     32 CA         29.6101   27.3950   -2.5143 C.3       2 UNK         0.0288 
     33 CB         30.7859   28.3282   -2.1708 C.3       2 UNK        -0.2113 
     34 N          29.8049   26.1015   -1.8693 N.am      2 UNK        -0.4145 
     35 C          30.2768   25.0035   -2.4680 C.2       1 UNK         0.5006 
     36 O          30.7193   24.9863   -3.6188 O.2       1 UNK        -0.5103 
     37 C          27.5199   27.5913    5.0285 C.2       5 UNK         0.5055 
     38 O          28.4687   28.2430    5.4645 O.2       5 UNK        -0.5220 
     39 N          26.2812   28.0834    4.8828 N.am      6 UNK        -0.4450 
     40 CA         25.8835   29.4504    5.2222 C.3       6 UNK         0.0367 
     41 CB         24.3489   29.5392    5.2518 C.3       6 UNK        -0.1929 
     42 C          26.4629   30.5143    4.2746 C.2       6 UNK         0.5070 
     43 O          26.7419   31.6254    4.7265 O.2       6 UNK        -0.5237 
     44 N          26.6188   30.1721    2.9888 N.am      7 UNK        -0.4739 
     45 CA         27.1391   31.0760    1.9592 C.3       7 UNK         0.0276 
     46 CB         26.3244   30.8916    0.6729 C.3       7 UNK        -0.1927 
     47 C          28.6340   30.8535    1.6846 C.2       7 UNK         0.5013 
     48 O          29.2880   31.7688    1.1803 O.2       7 UNK        -0.5193 
     49 N          29.1559   29.6637    2.0160 N.am      8 UNK        -0.4253 
     50 CA         30.5551   29.2734    1.8481 C.3       8 UNK         0.0242 
     51 CB         30.6683   27.7425    1.9646 C.3       8 UNK        -0.2000 
     52 C          31.4956   30.0127    2.8185 C.2       8 UNK         0.4948 
     53 O          31.9623   29.4372    3.8015 O.2       8 UNK        -0.5275 
     54 N          31.7903   31.2795    2.5000 N.am      9 UNK        -0.4246 
     55 CA         32.6994   32.1665    3.2365 C.3       9 UNK         0.0261 
     56 CB         32.6117   33.5787    2.6353 C.3       9 UNK        -0.1959 
     57 C          34.1665   31.6926    3.2879 C.2       9 UNK         0.5033 
     58 O          34.9307   32.2053    4.1065 O.2       9 UNK        -0.5390 
     59 N          34.5334   30.7166    2.4437 N.am      10 UNK        -0.4215 
     60 CA         35.8489   30.0712    2.3719 C.3       10 UNK         0.0240 
     61 CB         35.8285   29.0230    1.2470 C.3       10 UNK        -0.1982 
     62 C          36.3271   29.4295    3.6897 C.2       10 UNK         0.4970 
     63 O          37.5374   29.3180    3.8891 O.2       10 UNK        -0.4916 
     64 N          35.3894   29.0423    4.5656 N.am      11 UNK        -0.4279 
     65 CA         35.6759   28.5945    5.9378 C.3       11 UNK         0.1003 
     66 C          36.1012   29.7365    6.9106 C.2       11 UNK         0.5709 
     67 N          35.9897   31.0117    6.5550 N.am      11 UNK        -0.7358 
     68 O          36.5572   29.4556    8.0167 O.2       11 UNK        -0.4999 
     69 C69        34.5013   27.7732    6.5288 C.3       12 UNK        -0.0954 
     70 S70        34.2606   26.1706    5.6914 S.3       12 UNK        -0.2268 
     71 C71        32.7779   26.4949    4.6932 C.3       12 UNK         0.0203 
     72 H72        26.4210   22.4469   -3.7591 H         1 UNK         0.0888 
     73 H73        27.4919   21.1562   -3.2075 H         1 UNK         0.0888 
     74 H74        26.1868   21.7254   -2.1645 H         1 UNK         0.0888 
     75 H75        29.4851   21.9428   -2.6005 H         1 UNK         0.3017 
     76 H76        31.1565   23.1770   -1.8752 H         1 UNK         0.0873 
     77 H77        30.8848   24.5483    0.2319 H         1 UNK         0.0745 
     78 H78        29.1546   24.3108    0.1610 H         1 UNK         0.0745 
     79 H79        32.1779   21.5271    1.9901 H         1 UNK         0.0705 
     80 H80        32.5562   22.9720    1.0867 H         1 UNK         0.0705 
     81 H81        32.9562   24.8611    2.5045 H         1 UNK         0.1334 
     82 H82        30.9175   25.2948    6.2520 H         1 UNK         0.1417 
     83 H83        30.0728   21.9300    3.7348 H         1 UNK         0.1562 
     84 H84        29.5407   23.4697    7.0947 H         1 UNK         0.0748 
     85 H85        29.4627   21.9708    6.2071 H         1 UNK         0.0748 
     86 H86        28.2742   25.4941    6.6673 H         1 UNK         0.0940 
     87 H87        26.5666   25.3990    6.3476 H         1 UNK         0.0940 
     88 H88        28.7671   26.0208    4.3085 H         1 UNK         0.0703 
     89 H89        26.4385   24.7727    3.6770 H         1 UNK         0.3081 
     90 H90        26.5075   24.4088    1.1999 H         1 UNK         0.0719 
     91 H91        24.0504   26.0955    1.9300 H         1 UNK         0.0809 
     92 H92        23.9921   24.6263    0.9598 H         1 UNK         0.0809 
     93 H93        24.5162   24.5542    2.6290 H         1 UNK         0.0809 
     94 H94        26.6003   25.3603   -0.7572 H         1 UNK         0.2990 
     95 H95        25.2334   26.5739   -2.5971 H         1 UNK         0.0690 
     96 H96        25.3954   28.8506   -3.6019 H         1 UNK         0.0788 
     97 H97        25.6766   29.5458   -2.0072 H         1 UNK         0.0788 
     98 H98        24.1482   28.7658   -2.3688 H         1 UNK         0.0788 
     99 H99        27.3917   26.2927   -2.8935 H         1 UNK         0.2993 
    100 H100       29.5713   27.2802   -3.6001 H         1 UNK         0.0949 
    101 H101       30.9187   28.4212   -1.0950 H         1 UNK         0.0767 
    102 H102       31.7200   27.9528   -2.5890 H         1 UNK         0.0767 
    103 H103       30.6270   29.3290   -2.5747 H         1 UNK         0.0767 
    104 H104       29.4095   26.0125   -0.9439 H         1 UNK         0.3013 
    105 H105       25.5640   27.4756    4.5148 H         1 UNK         0.3121 
    106 H106       26.2552   29.6690    6.2259 H         1 UNK         0.0774 
    107 H107       23.9113   29.3107    4.2791 H         1 UNK         0.0815 
    108 H108       24.0225   30.5431    5.5274 H         1 UNK         0.0815 
    109 H109       23.9243   28.8511    5.9831 H         1 UNK         0.0815 
    110 H110       26.4058   29.2254    2.6975 H         1 UNK         0.2987 
    111 H111       27.0221   32.1144    2.2775 H         1 UNK         0.0949 
    112 H112       25.2664   31.0982    0.8340 H         1 UNK         0.0806 
    113 H113       26.4148   29.8738    0.2978 H         1 UNK         0.0806 
    114 H114       26.6746   31.5599   -0.1148 H         1 UNK         0.0806 
    115 H115       28.5278   28.9455    2.3585 H         1 UNK         0.3010 
    116 H116       30.8570   29.5520    0.8381 H         1 UNK         0.0829 
    117 H117       31.6942   27.4120    1.8010 H         1 UNK         0.0813 
    118 H118       30.0464   27.2419    1.2228 H         1 UNK         0.0813 
    119 H119       30.3602   27.3904    2.9498 H         1 UNK         0.0813 
    120 H120       31.2736   31.6909    1.7290 H         1 UNK         0.3038 
    121 H121       32.3453   32.2109    4.2684 H         1 UNK         0.0769 
    122 H122       32.9349   33.5941    1.5937 H         1 UNK         0.0811 
    123 H123       33.2443   34.2783    3.1837 H         1 UNK         0.0811 
    124 H124       31.5931   33.9655    2.6770 H         1 UNK         0.0811 
    125 H125       33.8297   30.3705    1.8091 H         1 UNK         0.3204 
    126 H126       36.5737   30.8446    2.1099 H         1 UNK         0.0748 
    127 H127       36.8018   28.5404    1.1446 H         1 UNK         0.0771 
    128 H128       35.0950   28.2387    1.4395 H         1 UNK         0.0771 
    129 H129       35.5929   29.4763    0.2838 H         1 UNK         0.0771 
    130 H130       34.4149   29.1719    4.3310 H         1 UNK         0.2980 
    131 H131       36.5398   27.9289    5.8877 H         1 UNK         0.0545 
    132 H132       36.2792   31.7244    7.2052 H         1 UNK         0.3459 
    133 H133       35.6243   31.2838    5.6472 H         1 UNK         0.3459 
    134 H134       33.5796   28.3573    6.5128 H         1 UNK         0.0616 
    135 H135       34.6863   27.5402    7.5792 H         1 UNK         0.0616 
    136 H136       33.0770   26.9818    3.7646 H         1 UNK         0.0634 
    137 H137       32.1161   27.1888    5.2133 H         1 UNK         0.0634 
@<TRIPOS>BOND
     1    1    2 1    
     2    1   72 1    
     3    1   73 1    
     4    1   74 1    
     5    2    3 2    
     6    2    4 am   BACKBONE|DICT|INTERRES
     7    4    5 1    
     8    4   75 1    
     9    5    6 1    
    10    5   35 1    
    11    5   76 1    
    12    6    7 1    
    13    6   77 1    
    14    6   78 1    
    15    7    8 1    
    16    8    9 1    
    17    8   79 1    
    18    8   80 1    
    19    9   10 ar   
    20    9   14 ar   
    21   10   11 ar   
    22   10   81 1    
    23   11   12 ar   
    24   11   71 1    
    25   12   13 ar   
    26   12   82 1    
    27   13   14 ar   
    28   13   15 1    
    29   14   83 1    
    30   15   16 1    
    31   15   84 1    
    32   15   85 1    
    33   16   17 1    
    34   17   18 1    
    35   17   86 1    
    36   17   87 1    
    37   18   19 1    
    38   18   37 1    
    39   18   88 1    
    40   19   20 am   BACKBONE|DICT|INTERRES
    41   19   89 1    
    42   20   21 2    
    43   20   22 1    
    44   22   23 1    
    45   22   24 1    
    46   22   90 1    
    47   23   91 1    
    48   23   92 1    
    49   23   93 1    
    50   24   25 am   BACKBONE|DICT|INTERRES
    51   24   94 1    
    52   25   26 2    
    53   25   27 1    
    54   27   28 1    
    55   27   29 1    
    56   27   95 1    
    57   28   96 1    
    58   28   97 1    
    59   28   98 1    
    60   29   30 am   BACKBONE|DICT|INTERRES
    61   29   99 1    
    62   30   31 2    
    63   30   32 1    
    64   32   33 1    
    65   32   34 1    
    66   32  100 1    
    67   33  101 1    
    68   33  102 1    
    69   33  103 1    
    70   34   35 am   BACKBONE|DICT|INTERRES
    71   34  104 1    
    72   35   36 2    
    73   37   38 2    
    74   37   39 am   BACKBONE|DICT|INTERRES
    75   39   40 1    
    76   39  105 1    
    77   40   41 1    
    78   40   42 1    
    79   40  106 1    
    80   41  107 1    
    81   41  108 1    
    82   41  109 1    
    83   42   43 2    
    84   42   44 am   BACKBONE|DICT|INTERRES
    85   44   45 1    
    86   44  110 1    
    87   45   46 1    
    88   45   47 1    
    89   45  111 1    
    90   46  112 1    
    91   46  113 1    
    92   46  114 1    
    93   47   48 2    
    94   47   49 am   BACKBONE|DICT|INTERRES
    95   49   50 1    
    96   49  115 1    
    97   50   51 1    
    98   50   52 1    
    99   50  116 1    
   100   51  117 1    
   101   51  118 1    
   102   51  119 1    
   103   52   53 2    
   104   52   54 am   BACKBONE|DICT|INTERRES
   105   54   55 1    
   106   54  120 1    
   107   55   56 1    
   108   55   57 1    
   109   55  121 1    
   110   56  122 1    
   111   56  123 1    
   112   56  124 1    
   113   57   58 2    
   114   57   59 am   BACKBONE|DICT|INTERRES
   115   59   60 1    
   116   59  125 1    
   117   60   61 1    
   118   60   62 1    
   119   60  126 1    
   120   61  127 1    
   121   61  128 1    
   122   61  129 1    
   123   62   63 2    
   124   62   64 am   BACKBONE|DICT|INTERRES
   125   64   65 1    
   126   64  130 1    
   127   65   66 1    
   128   65   69 1    
   129   65  131 1    
   130   66   67 am   BACKBONE|DICT|INTERRES
   131   66   68 2    
   132   67  132 1    
   133   67  133 1    
   134   69   70 1    
   135   69  134 1    
   136   69  135 1    
   137   70   71 1    
   138   71  136 1    
   139   71  137 1    
@<TRIPOS>SUBSTRUCTURE
     1 UNK         1 GROUP             0       ****    0 ROOT    
