@<TRIPOS>MOLECULE
3R136
137   139    1
SMALL
USER_CHARGES


@<TRIPOS>ATOM
      1 CA         26.1687   20.2852    2.1146 C.3       0 UNK        -0.1979 
      2 C          26.6939   21.3886    1.2098 C.2       0 UNK         0.4864 
      3 O          25.9980   22.3796    0.9871 O.2       0 UNK        -0.5359 
      4 N          27.9232   21.2378    0.6973 N.am      1 UNK        -0.4318 
      5 CA         28.5887   22.1951   -0.1968 C.3       1 UNK         0.0824 
      6 C6         29.9098   21.6344   -0.7814 C.3       12 UNK        -0.0944 
      7 S7         31.1007   21.0357    0.4721 S.3       12 UNK        -0.2672 
      8 C8         32.6211   21.9343    0.0258 C.3       12 UNK         0.0333 
      9 C9         32.6150   23.3611    0.5539 C.ar      12 UNK        -0.0807 
     10 C10        33.0393   23.6257    1.8598 C.ar      12 UNK        -0.0894 
     11 C11        33.0387   24.9324    2.3577 C.ar      12 UNK        -0.0804 
     12 C12        32.6106   25.9776    1.5337 C.ar      12 UNK        -0.0824 
     13 C13        32.1799   25.7266    0.2275 C.ar      12 UNK        -0.0762 
     14 C14        32.1919   24.4164   -0.2592 C.ar      12 UNK        -0.0782 
     15 C15        31.6837   26.8638   -0.6526 C.3       12 UNK         0.0230 
     16 S16        30.0969   27.5150   -0.0442 S.3       12 UNK        -0.2608 
     17 C17        29.3406   28.1463   -1.5759 C.3       12 UNK        -0.0989 
     18 CA         27.8004   28.3000   -1.5101 C.3       5 UNK         0.0716 
     19 N          27.0886   27.0464   -1.2248 N.am      5 UNK        -0.4135 
     20 C          25.8077   26.8378   -1.5721 C.2       4 UNK         0.5031 
     21 O          25.1355   27.6424   -2.2195 O.2       4 UNK        -0.5229 
     22 CA         25.1470   25.5237   -1.1224 C.3       4 UNK         0.0329 
     23 CB         25.5788   24.3487   -2.0147 C.3       4 UNK        -0.2001 
     24 N          25.4011   25.2135    0.2843 N.am      4 UNK        -0.4303 
     25 C          24.9318   25.9293    1.3174 C.2       3 UNK         0.5044 
     26 O          24.1885   26.9029    1.1975 O.2       3 UNK        -0.5152 
     27 CA         25.3670   25.4937    2.7261 C.3       3 UNK         0.0319 
     28 CB         24.3737   24.4809    3.3179 C.3       3 UNK        -0.2001 
     29 N          26.7155   24.9257    2.7389 N.am      3 UNK        -0.4354 
     30 C          27.8363   25.6491    2.6059 C.2       2 UNK         0.4964 
     31 O          27.8500   26.8762    2.5139 O.2       2 UNK        -0.5047 
     32 CA         29.1578   24.8661    2.5327 C.3       2 UNK         0.0288 
     33 CB         29.6617   24.5188    3.9425 C.3       2 UNK        -0.2113 
     34 N          29.0547   23.6411    1.7368 N.am      2 UNK        -0.4145 
     35 C          28.7635   23.5959    0.4276 C.2       1 UNK         0.5006 
     36 O          28.5672   24.5922   -0.2697 O.2       1 UNK        -0.5103 
     37 C          27.3551   29.4447   -0.5760 C.2       5 UNK         0.5055 
     38 O          27.1727   30.5653   -1.0552 O.2       5 UNK        -0.5220 
     39 N          27.1772   29.1474    0.7223 N.am      6 UNK        -0.4450 
     40 CA         26.6771   29.9983    1.8146 C.3       6 UNK         0.0367 
     41 CB         25.2318   30.4582    1.5437 C.3       6 UNK        -0.1929 
     42 C          27.5667   31.1987    2.1929 C.2       6 UNK         0.5070 
     43 O          27.7479   31.4610    3.3816 O.2       6 UNK        -0.5237 
     44 N          28.0952   31.9156    1.1953 N.am      7 UNK        -0.4739 
     45 CA         28.9005   33.1316    1.3457 C.3       7 UNK         0.0276 
     46 CB         28.9188   33.8775    0.0015 C.3       7 UNK        -0.1927 
     47 C          30.3372   32.8829    1.8392 C.2       7 UNK         0.5013 
     48 O          31.0077   33.8375    2.2376 O.2       7 UNK        -0.5193 
     49 N          30.7984   31.6260    1.7982 N.am      8 UNK        -0.4253 
     50 CA         32.1342   31.1910    2.2098 C.3       8 UNK         0.0242 
     51 CB         32.4224   29.8222    1.5744 C.3       8 UNK        -0.2000 
     52 C          32.2912   31.1637    3.7416 C.2       8 UNK         0.4948 
     53 O          32.4661   30.0946    4.3300 O.2       8 UNK        -0.5275 
     54 N          32.2541   32.3486    4.3650 N.am      9 UNK        -0.4246 
     55 CA         32.3495   32.5786    5.8140 C.3       9 UNK         0.0261 
     56 CB         32.2003   34.0842    6.0877 C.3       9 UNK        -0.1959 
     57 C          33.6239   32.0312    6.4903 C.2       9 UNK         0.5033 
     58 O          33.6405   31.8901    7.7138 O.2       9 UNK        -0.5390 
     59 N          34.6534   31.7142    5.6931 N.am      10 UNK        -0.4215 
     60 CA         35.8758   31.0278    6.1102 C.3       10 UNK         0.0240 
     61 CB         36.8833   31.0510    4.9489 C.3       10 UNK        -0.1982 
     62 C          35.6507   29.5807    6.5929 C.2       10 UNK         0.4970 
     63 O          36.4775   29.0899    7.3635 O.2       10 UNK        -0.4916 
     64 N          34.5665   28.9249    6.1528 N.am      11 UNK        -0.4279 
     65 CA         34.2156   27.5554    6.5632 C.3       11 UNK         0.1003 
     66 C          32.6923   27.2658    6.6631 C.2       11 UNK         0.5709 
     67 N          31.8041   28.0935    6.1289 N.am      11 UNK        -0.7358 
     68 O          32.3029   26.2698    7.2681 O.2       11 UNK        -0.4999 
     69 C69        34.9902   26.4674    5.7674 C.3       12 UNK        -0.0954 
     70 S70        34.7061   26.5007    3.9630 S.3       12 UNK        -0.2268 
     71 C71        33.4409   25.1995    3.8026 C.3       12 UNK         0.0203 
     72 H72        25.9391   20.6871    3.1011 H         1 UNK         0.0888 
     73 H73        25.2547   19.8638    1.6970 H         1 UNK         0.0888 
     74 H74        26.8912   19.4781    2.2353 H         1 UNK         0.0888 
     75 H75        28.4608   20.4118    0.9214 H         1 UNK         0.3017 
     76 H76        27.9100   22.3340   -1.0408 H         1 UNK         0.0873 
     77 H77        30.3807   22.3718   -1.4327 H         1 UNK         0.0745 
     78 H78        29.6792   20.7895   -1.4320 H         1 UNK         0.0745 
     79 H79        32.7573   21.9209   -1.0567 H         1 UNK         0.0705 
     80 H80        33.4757   21.3981    0.4415 H         1 UNK         0.0705 
     81 H81        33.3556   22.8076    2.4925 H         1 UNK         0.1334 
     82 H82        32.5918   26.9851    1.9211 H         1 UNK         0.1417 
     83 H83        31.8587   24.2174   -1.2682 H         1 UNK         0.1562 
     84 H84        31.5742   26.5197   -1.6818 H         1 UNK         0.0748 
     85 H85        32.4227   27.6654   -0.6732 H         1 UNK         0.0748 
     86 H86        29.5860   27.4663   -2.3929 H         1 UNK         0.0940 
     87 H87        29.8114   29.0977   -1.8316 H         1 UNK         0.0940 
     88 H88        27.4997   28.6091   -2.5141 H         1 UNK         0.0703 
     89 H89        27.6034   26.3214   -0.7316 H         1 UNK         0.3081 
     90 H90        24.0671   25.6425   -1.2355 H         1 UNK         0.0719 
     91 H91        25.2787   24.5198   -3.0492 H         1 UNK         0.0809 
     92 H92        26.6590   24.2094   -2.0132 H         1 UNK         0.0809 
     93 H93        25.1186   23.4141   -1.6932 H         1 UNK         0.0809 
     94 H94        25.9398   24.3771    0.4834 H         1 UNK         0.2990 
     95 H95        25.3633   26.3816    3.3624 H         1 UNK         0.0690 
     96 H96        24.6458   24.2073    4.3374 H         1 UNK         0.0788 
     97 H97        24.3237   23.5664    2.7261 H         1 UNK         0.0788 
     98 H98        23.3672   24.9000    3.3530 H         1 UNK         0.0788 
     99 H99        26.7841   23.9181    2.7542 H         1 UNK         0.2993 
    100 H100       29.8958   25.5092    2.0538 H         1 UNK         0.0949 
    101 H101       28.9494   23.8981    4.4875 H         1 UNK         0.0767 
    102 H102       30.6096   23.9824    3.9032 H         1 UNK         0.0767 
    103 H103       29.8255   25.4236    4.5297 H         1 UNK         0.0767 
    104 H104       29.2124   22.7671    2.2165 H         1 UNK         0.3013 
    105 H105       27.4394   28.2138    1.0271 H         1 UNK         0.3121 
    106 H106       26.6497   29.3495    2.6915 H         1 UNK         0.0774 
    107 H107       24.5736   29.6089    1.3617 H         1 UNK         0.0815 
    108 H108       24.8298   31.0017    2.3997 H         1 UNK         0.0815 
    109 H109       25.1686   31.1214    0.6806 H         1 UNK         0.0815 
    110 H110       27.8649   31.6210    0.2475 H         1 UNK         0.2987 
    111 H111       28.4156   33.7713    2.0864 H         1 UNK         0.0949 
    112 H112       27.9105   34.1366   -0.3221 H         1 UNK         0.0806 
    113 H113       29.4822   34.8088    0.0763 H         1 UNK         0.0806 
    114 H114       29.3799   33.2786   -0.7850 H         1 UNK         0.0806 
    115 H115       30.1629   30.9064    1.4862 H         1 UNK         0.3010 
    116 H116       32.8674   31.8997    1.8188 H         1 UNK         0.0829 
    117 H117       31.7031   29.0766    1.9130 H         1 UNK         0.0813 
    118 H118       32.3734   29.8706    0.4867 H         1 UNK         0.0813 
    119 H119       33.4180   29.4638    1.8406 H         1 UNK         0.0813 
    120 H120       32.0512   33.1595    3.7871 H         1 UNK         0.3038 
    121 H121       31.5048   32.0623    6.2744 H         1 UNK         0.0769 
    122 H122       32.2260   34.2932    7.1582 H         1 UNK         0.0811 
    123 H123       31.2515   34.4649    5.7087 H         1 UNK         0.0811 
    124 H124       33.0027   34.6590    5.6235 H         1 UNK         0.0811 
    125 H125       34.5412   31.8765    4.7036 H         1 UNK         0.3204 
    126 H126       36.3015   31.5871    6.9460 H         1 UNK         0.0748 
    127 H127       37.8227   30.5769    5.2375 H         1 UNK         0.0771 
    128 H128       36.5050   30.5177    4.0755 H         1 UNK         0.0771 
    129 H129       37.1184   32.0716    4.6458 H         1 UNK         0.0771 
    130 H130       33.9231   29.3801    5.5145 H         1 UNK         0.2980 
    131 H131       34.5396   27.4558    7.6012 H         1 UNK         0.0545 
    132 H132       32.0805   28.8747    5.5382 H         1 UNK         0.3459 
    133 H133       30.8262   27.8797    6.2331 H         1 UNK         0.3459 
    134 H134       36.0611   26.5995    5.9272 H         1 UNK         0.0616 
    135 H135       34.7652   25.4732    6.1572 H         1 UNK         0.0616 
    136 H136       33.8144   24.2869    4.2693 H         1 UNK         0.0634 
    137 H137       32.5516   25.4941    4.3593 H         1 UNK         0.0634 
@<TRIPOS>BOND
     1    1    2 1    
     2    1   72 1    
     3    1   73 1    
     4    1   74 1    
     5    2    3 2    
     6    2    4 am   BACKBONE|DICT|INTERRES
     7    4    5 1    
     8    4   75 1    
     9    5    6 1    
    10    5   35 1    
    11    5   76 1    
    12    6    7 1    
    13    6   77 1    
    14    6   78 1    
    15    7    8 1    
    16    8    9 1    
    17    8   79 1    
    18    8   80 1    
    19    9   10 ar   
    20    9   14 ar   
    21   10   11 ar   
    22   10   81 1    
    23   11   12 ar   
    24   11   71 1    
    25   12   13 ar   
    26   12   82 1    
    27   13   14 ar   
    28   13   15 1    
    29   14   83 1    
    30   15   16 1    
    31   15   84 1    
    32   15   85 1    
    33   16   17 1    
    34   17   18 1    
    35   17   86 1    
    36   17   87 1    
    37   18   19 1    
    38   18   37 1    
    39   18   88 1    
    40   19   20 am   BACKBONE|DICT|INTERRES
    41   19   89 1    
    42   20   21 2    
    43   20   22 1    
    44   22   23 1    
    45   22   24 1    
    46   22   90 1    
    47   23   91 1    
    48   23   92 1    
    49   23   93 1    
    50   24   25 am   BACKBONE|DICT|INTERRES
    51   24   94 1    
    52   25   26 2    
    53   25   27 1    
    54   27   28 1    
    55   27   29 1    
    56   27   95 1    
    57   28   96 1    
    58   28   97 1    
    59   28   98 1    
    60   29   30 am   BACKBONE|DICT|INTERRES
    61   29   99 1    
    62   30   31 2    
    63   30   32 1    
    64   32   33 1    
    65   32   34 1    
    66   32  100 1    
    67   33  101 1    
    68   33  102 1    
    69   33  103 1    
    70   34   35 am   BACKBONE|DICT|INTERRES
    71   34  104 1    
    72   35   36 2    
    73   37   38 2    
    74   37   39 am   BACKBONE|DICT|INTERRES
    75   39   40 1    
    76   39  105 1    
    77   40   41 1    
    78   40   42 1    
    79   40  106 1    
    80   41  107 1    
    81   41  108 1    
    82   41  109 1    
    83   42   43 2    
    84   42   44 am   BACKBONE|DICT|INTERRES
    85   44   45 1    
    86   44  110 1    
    87   45   46 1    
    88   45   47 1    
    89   45  111 1    
    90   46  112 1    
    91   46  113 1    
    92   46  114 1    
    93   47   48 2    
    94   47   49 am   BACKBONE|DICT|INTERRES
    95   49   50 1    
    96   49  115 1    
    97   50   51 1    
    98   50   52 1    
    99   50  116 1    
   100   51  117 1    
   101   51  118 1    
   102   51  119 1    
   103   52   53 2    
   104   52   54 am   BACKBONE|DICT|INTERRES
   105   54   55 1    
   106   54  120 1    
   107   55   56 1    
   108   55   57 1    
   109   55  121 1    
   110   56  122 1    
   111   56  123 1    
   112   56  124 1    
   113   57   58 2    
   114   57   59 am   BACKBONE|DICT|INTERRES
   115   59   60 1    
   116   59  125 1    
   117   60   61 1    
   118   60   62 1    
   119   60  126 1    
   120   61  127 1    
   121   61  128 1    
   122   61  129 1    
   123   62   63 2    
   124   62   64 am   BACKBONE|DICT|INTERRES
   125   64   65 1    
   126   64  130 1    
   127   65   66 1    
   128   65   69 1    
   129   65  131 1    
   130   66   67 am   BACKBONE|DICT|INTERRES
   131   66   68 2    
   132   67  132 1    
   133   67  133 1    
   134   69   70 1    
   135   69  134 1    
   136   69  135 1    
   137   70   71 1    
   138   71  136 1    
   139   71  137 1    
@<TRIPOS>SUBSTRUCTURE
     1 UNK         1 GROUP             0       ****    0 ROOT    
