@<TRIPOS>MOLECULE
3R136
137   139    1
SMALL
USER_CHARGES


@<TRIPOS>ATOM
      1 CA         26.5289   21.9505   -1.2244 C.3       0 UNK        -0.1979 
      2 C          26.5802   21.2042    0.1077 C.2       0 UNK         0.4864 
      3 O          25.8559   20.2242    0.2737 O.2       0 UNK        -0.5359 
      4 N          27.4109   21.6097    1.0811 N.am      1 UNK        -0.4318 
      5 CA         28.3109   22.7716    1.0641 C.3       1 UNK         0.0824 
      6 C6         29.2722   22.7844    2.2792 C.3       12 UNK        -0.0944 
      7 S7         30.2440   21.2593    2.5129 S.3       12 UNK        -0.2672 
      8 C8         31.7950   21.6153    1.6193 C.3       12 UNK         0.0333 
      9 C9         32.4750   22.9250    2.0153 C.ar      12 UNK        -0.0807 
     10 C10        32.7001   23.2602    3.3583 C.ar      12 UNK        -0.0894 
     11 C11        33.3435   24.4570    3.7020 C.ar      12 UNK        -0.0804 
     12 C12        33.7761   25.3049    2.6768 C.ar      12 UNK        -0.0824 
     13 C13        33.5396   24.9969    1.3378 C.ar      12 UNK        -0.0762 
     14 C14        32.8938   23.8033    1.0117 C.ar      12 UNK        -0.0782 
     15 C15        33.9809   25.9662    0.2521 C.3       12 UNK         0.0230 
     16 S16        32.9602   27.4740    0.2521 S.3       12 UNK        -0.2608 
     17 C17        31.3658   26.8209   -0.3444 C.3       12 UNK        -0.0989 
     18 CA         30.1653   27.7526   -0.0207 C.3       5 UNK         0.0716 
     19 N          29.0190   27.4515   -0.8666 N.am      5 UNK        -0.4135 
     20 C          28.8546   27.8194   -2.1403 C.2       4 UNK         0.5031 
     21 O          29.6724   28.4827   -2.7792 O.2       4 UNK        -0.5229 
     22 CA         27.5503   27.3660   -2.8185 C.3       4 UNK         0.0329 
     23 CB         27.6953   25.9349   -3.3619 C.3       4 UNK        -0.2001 
     24 N          26.4022   27.4220   -1.9126 N.am      4 UNK        -0.4303 
     25 C          25.8467   28.5438   -1.4382 C.2       3 UNK         0.5044 
     26 O          26.1870   29.6744   -1.7873 O.2       3 UNK        -0.5152 
     27 CA         24.7378   28.3896   -0.3811 C.3       3 UNK         0.0319 
     28 CB         23.3695   28.1186   -1.0373 C.3       3 UNK        -0.2001 
     29 N          25.0439   27.4126    0.6756 N.am      3 UNK        -0.4354 
     30 C          25.1587   26.0799    0.5841 C.2       2 UNK         0.4964 
     31 O          24.9725   25.4338   -0.4498 O.2       2 UNK        -0.5047 
     32 CA         25.5516   25.3552    1.8817 C.3       2 UNK         0.0288 
     33 CB         24.2946   24.9586    2.6727 C.3       2 UNK        -0.2113 
     34 N          26.3761   24.1614    1.6719 N.am      2 UNK        -0.4145 
     35 C          27.5529   24.1155    1.0277 C.2       1 UNK         0.5006 
     36 O          28.0613   25.0747    0.4483 O.2       1 UNK        -0.5103 
     37 C          29.6658   27.7234    1.4399 C.2       5 UNK         0.5055 
     38 O          28.5922   28.2661    1.7166 O.2       5 UNK        -0.5220 
     39 N          30.4273   27.0894    2.3434 N.am      6 UNK        -0.4450 
     40 CA         30.1688   26.9638    3.7825 C.3       6 UNK         0.0367 
     41 CB         28.8805   26.1545    4.0535 C.3       6 UNK        -0.1929 
     42 C          30.1834   28.3350    4.4804 C.2       6 UNK         0.5070 
     43 O          30.9778   29.1966    4.0987 O.2       6 UNK        -0.5237 
     44 N          29.3153   28.5246    5.4843 N.am      7 UNK        -0.4739 
     45 CA         29.1881   29.7419    6.2936 C.3       7 UNK         0.0276 
     46 CB         28.1009   29.5332    7.3591 C.3       7 UNK        -0.1927 
     47 C          28.9070   31.0189    5.4828 C.2       7 UNK         0.5013 
     48 O          29.3635   32.0893    5.8831 O.2       7 UNK        -0.5193 
     49 N          28.2361   30.8817    4.3287 N.am      8 UNK        -0.4253 
     50 CA         28.0015   31.9618    3.3630 C.3       8 UNK         0.0242 
     51 CB         27.0402   31.4689    2.2685 C.3       8 UNK        -0.2000 
     52 C          29.2936   32.5238    2.7359 C.2       8 UNK         0.4948 
     53 O          29.2933   33.6746    2.2978 O.2       8 UNK        -0.5275 
     54 N          30.3662   31.7212    2.7270 N.am      9 UNK        -0.4246 
     55 CA         31.7132   32.0991    2.2999 C.3       9 UNK         0.0261 
     56 CB         32.1600   31.1151    1.2035 C.3       9 UNK        -0.1959 
     57 C          32.7061   32.0905    3.4794 C.2       9 UNK         0.5033 
     58 O          33.9125   32.1501    3.2383 O.2       9 UNK        -0.5390 
     59 N          32.2087   31.9609    4.7225 N.am      10 UNK        -0.4215 
     60 CA         32.9626   31.7683    5.9727 C.3       10 UNK         0.0240 
     61 CB         33.6818   33.0743    6.3705 C.3       10 UNK        -0.1982 
     62 C          33.9154   30.5498    5.9444 C.2       10 UNK         0.4970 
     63 O          34.9616   30.5738    6.5949 O.2       10 UNK        -0.4916 
     64 N          33.5464   29.5220    5.1677 N.am      11 UNK        -0.4279 
     65 CA         34.3658   28.3612    4.7917 C.3       11 UNK         0.1003 
     66 C          35.6465   28.7179    3.9630 C.2       11 UNK         0.5709 
     67 N          35.7374   29.8909    3.3462 N.am      11 UNK        -0.7358 
     68 O          36.5682   27.9168    3.8393 O.2       11 UNK        -0.4999 
     69 C69        34.5916   27.3852    5.9874 C.3       12 UNK        -0.0954 
     70 S70        35.1033   25.6807    5.5427 S.3       12 UNK        -0.2268 
     71 C71        33.5283   24.8286    5.1765 C.3       12 UNK         0.0203 
     72 H72        26.0632   21.3280   -1.9880 H         1 UNK         0.0888 
     73 H73        25.9355   22.8599   -1.1325 H         1 UNK         0.0888 
     74 H74        27.5225   22.2133   -1.5840 H         1 UNK         0.0888 
     75 H75        27.4488   21.0623    1.9294 H         1 UNK         0.3017 
     76 H76        28.9232   22.7146    0.1626 H         1 UNK         0.0873 
     77 H77        28.7078   22.9277    3.2028 H         1 UNK         0.0745 
     78 H78        29.9519   23.6349    2.2111 H         1 UNK         0.0745 
     79 H79        31.5748   21.6042    0.5507 H         1 UNK         0.0705 
     80 H80        32.4925   20.7953    1.7945 H         1 UNK         0.0705 
     81 H81        32.3651   22.5879    4.1364 H         1 UNK         0.1334 
     82 H82        34.3036   26.2159    2.9031 H         1 UNK         0.1417 
     83 H83        32.7196   23.5578   -0.0273 H         1 UNK         0.1562 
     84 H84        33.9417   25.5000   -0.7337 H         1 UNK         0.0748 
     85 H85        35.0227   26.2444    0.4192 H         1 UNK         0.0748 
     86 H86        31.1830   25.8125    0.0297 H         1 UNK         0.0940 
     87 H87        31.4702   26.7109   -1.4250 H         1 UNK         0.0940 
     88 H88        30.4586   28.7855   -0.2191 H         1 UNK         0.0703 
     89 H89        28.3120   26.8773   -0.4170 H         1 UNK         0.3081 
     90 H90        27.3567   28.0371   -3.6580 H         1 UNK         0.0719 
     91 H91        28.5389   25.8621   -4.0498 H         1 UNK         0.0809 
     92 H92        27.8629   25.2132   -2.5608 H         1 UNK         0.0809 
     93 H93        26.8041   25.6265   -3.9088 H         1 UNK         0.0809 
     94 H94        26.0333   26.5401   -1.5658 H         1 UNK         0.2990 
     95 H95        24.6647   29.3513    0.1299 H         1 UNK         0.0690 
     96 H96        22.5757   28.0683   -0.2920 H         1 UNK         0.0788 
     97 H97        23.3603   27.1851   -1.6006 H         1 UNK         0.0788 
     98 H98        23.1100   28.9168   -1.7340 H         1 UNK         0.0788 
     99 H99        25.2477   27.8302    1.5734 H         1 UNK         0.2993 
    100 H100       26.1415   26.0448    2.4876 H         1 UNK         0.0949 
    101 H101       23.6869   24.2371    2.1247 H         1 UNK         0.0767 
    102 H102       24.5527   24.5186    3.6363 H         1 UNK         0.0767 
    103 H103       23.6657   25.8270    2.8745 H         1 UNK         0.0767 
    104 H104       26.0351   23.3065    2.0861 H         1 UNK         0.3013 
    105 H105       31.3176   26.7295    2.0253 H         1 UNK         0.3121 
    106 H106       31.0086   26.4023    4.1895 H         1 UNK         0.0774 
    107 H107       28.8186   25.8396    5.0957 H         1 UNK         0.0815 
    108 H108       27.9816   26.7263    3.8226 H         1 UNK         0.0815 
    109 H109       28.8520   25.2527    3.4514 H         1 UNK         0.0815 
    110 H110       28.6982   27.7623    5.7254 H         1 UNK         0.2987 
    111 H111       30.1419   29.8905    6.8043 H         1 UNK         0.0949 
    112 H112       28.3408   28.6950    8.0136 H         1 UNK         0.0806 
    113 H113       28.0002   30.4160    7.9926 H         1 UNK         0.0806 
    114 H114       27.1255   29.3419    6.9100 H         1 UNK         0.0806 
    115 H115       27.9320   29.9564    4.0595 H         1 UNK         0.3010 
    116 H116       27.5185   32.7823    3.8980 H         1 UNK         0.0829 
    117 H117       26.0988   31.1184    2.6916 H         1 UNK         0.0813 
    118 H118       26.8007   32.2726    1.5707 H         1 UNK         0.0813 
    119 H119       27.4722   30.6548    1.6859 H         1 UNK         0.0813 
    120 H120       30.2837   30.7871    3.1189 H         1 UNK         0.3038 
    121 H121       31.7188   33.1085    1.8842 H         1 UNK         0.0769 
    122 H122       33.1432   31.3773    0.8108 H         1 UNK         0.0811 
    123 H123       31.4669   31.1163    0.3623 H         1 UNK         0.0811 
    124 H124       32.2227   30.0957    1.5862 H         1 UNK         0.0811 
    125 H125       31.2006   31.9549    4.8278 H         1 UNK         0.3204 
    126 H126       32.2216   31.5515    6.7433 H         1 UNK         0.0748 
    127 H127       34.1341   32.9895    7.3594 H         1 UNK         0.0771 
    128 H128       34.4775   33.3264    5.6685 H         1 UNK         0.0771 
    129 H129       32.9873   33.9137    6.4056 H         1 UNK         0.0771 
    130 H130       32.6459   29.5768    4.6958 H         1 UNK         0.2980 
    131 H131       33.7138   27.8501    4.0883 H         1 UNK         0.0545 
    132 H132       36.5656   30.0920    2.8100 H         1 UNK         0.3459 
    133 H133       35.0063   30.5930    3.4156 H         1 UNK         0.3459 
    134 H134       35.3482   27.7952    6.6579 H         1 UNK         0.0616 
    135 H135       33.6816   27.3129    6.5848 H         1 UNK         0.0616 
    136 H136       33.4957   23.9261    5.7886 H         1 UNK         0.0634 
    137 H137       32.6889   25.4434    5.4994 H         1 UNK         0.0634 
@<TRIPOS>BOND
     1    1    2 1    
     2    1   72 1    
     3    1   73 1    
     4    1   74 1    
     5    2    3 2    
     6    2    4 am   BACKBONE|DICT|INTERRES
     7    4    5 1    
     8    4   75 1    
     9    5    6 1    
    10    5   35 1    
    11    5   76 1    
    12    6    7 1    
    13    6   77 1    
    14    6   78 1    
    15    7    8 1    
    16    8    9 1    
    17    8   79 1    
    18    8   80 1    
    19    9   10 ar   
    20    9   14 ar   
    21   10   11 ar   
    22   10   81 1    
    23   11   12 ar   
    24   11   71 1    
    25   12   13 ar   
    26   12   82 1    
    27   13   14 ar   
    28   13   15 1    
    29   14   83 1    
    30   15   16 1    
    31   15   84 1    
    32   15   85 1    
    33   16   17 1    
    34   17   18 1    
    35   17   86 1    
    36   17   87 1    
    37   18   19 1    
    38   18   37 1    
    39   18   88 1    
    40   19   20 am   BACKBONE|DICT|INTERRES
    41   19   89 1    
    42   20   21 2    
    43   20   22 1    
    44   22   23 1    
    45   22   24 1    
    46   22   90 1    
    47   23   91 1    
    48   23   92 1    
    49   23   93 1    
    50   24   25 am   BACKBONE|DICT|INTERRES
    51   24   94 1    
    52   25   26 2    
    53   25   27 1    
    54   27   28 1    
    55   27   29 1    
    56   27   95 1    
    57   28   96 1    
    58   28   97 1    
    59   28   98 1    
    60   29   30 am   BACKBONE|DICT|INTERRES
    61   29   99 1    
    62   30   31 2    
    63   30   32 1    
    64   32   33 1    
    65   32   34 1    
    66   32  100 1    
    67   33  101 1    
    68   33  102 1    
    69   33  103 1    
    70   34   35 am   BACKBONE|DICT|INTERRES
    71   34  104 1    
    72   35   36 2    
    73   37   38 2    
    74   37   39 am   BACKBONE|DICT|INTERRES
    75   39   40 1    
    76   39  105 1    
    77   40   41 1    
    78   40   42 1    
    79   40  106 1    
    80   41  107 1    
    81   41  108 1    
    82   41  109 1    
    83   42   43 2    
    84   42   44 am   BACKBONE|DICT|INTERRES
    85   44   45 1    
    86   44  110 1    
    87   45   46 1    
    88   45   47 1    
    89   45  111 1    
    90   46  112 1    
    91   46  113 1    
    92   46  114 1    
    93   47   48 2    
    94   47   49 am   BACKBONE|DICT|INTERRES
    95   49   50 1    
    96   49  115 1    
    97   50   51 1    
    98   50   52 1    
    99   50  116 1    
   100   51  117 1    
   101   51  118 1    
   102   51  119 1    
   103   52   53 2    
   104   52   54 am   BACKBONE|DICT|INTERRES
   105   54   55 1    
   106   54  120 1    
   107   55   56 1    
   108   55   57 1    
   109   55  121 1    
   110   56  122 1    
   111   56  123 1    
   112   56  124 1    
   113   57   58 2    
   114   57   59 am   BACKBONE|DICT|INTERRES
   115   59   60 1    
   116   59  125 1    
   117   60   61 1    
   118   60   62 1    
   119   60  126 1    
   120   61  127 1    
   121   61  128 1    
   122   61  129 1    
   123   62   63 2    
   124   62   64 am   BACKBONE|DICT|INTERRES
   125   64   65 1    
   126   64  130 1    
   127   65   66 1    
   128   65   69 1    
   129   65  131 1    
   130   66   67 am   BACKBONE|DICT|INTERRES
   131   66   68 2    
   132   67  132 1    
   133   67  133 1    
   134   69   70 1    
   135   69  134 1    
   136   69  135 1    
   137   70   71 1    
   138   71  136 1    
   139   71  137 1    
@<TRIPOS>SUBSTRUCTURE
     1 UNK         1 GROUP             0       ****    0 ROOT    
