@<TRIPOS>MOLECULE
3R136
137   139    1
SMALL
USER_CHARGES


@<TRIPOS>ATOM
      1 CA         27.9262   26.7992   -5.1309 C.3       0 UNK        -0.1979 
      2 C          27.8880   26.5157   -3.6372 C.2       0 UNK         0.4864 
      3 O          26.8284   26.6338   -3.0221 O.2       0 UNK        -0.5359 
      4 N          29.0307   26.1208   -3.0541 N.am      1 UNK        -0.4318 
      5 CA         29.2245   25.8499   -1.6205 C.3       1 UNK         0.0824 
      6 C6         30.7014   25.4904   -1.3200 C.3       12 UNK        -0.0944 
      7 S7         31.1534   25.7521    0.4262 S.3       12 UNK        -0.2672 
      8 C8         31.5168   24.0507    0.9569 C.3       12 UNK         0.0333 
      9 C9         31.7462   23.9980    2.4584 C.ar      12 UNK        -0.0807 
     10 C10        32.9654   24.4143    2.9996 C.ar      12 UNK        -0.0894 
     11 C11        33.1645   24.4111    4.3830 C.ar      12 UNK        -0.0804 
     12 C12        32.1294   23.9942    5.2253 C.ar      12 UNK        -0.0824 
     13 C13        30.9042   23.5714    4.6993 C.ar      12 UNK        -0.0762 
     14 C14        30.7318   23.5518    3.3097 C.ar      12 UNK        -0.0782 
     15 C15        29.7979   23.1329    5.6599 C.3       12 UNK         0.0230 
     16 S16        28.0913   23.4438    5.0814 S.3       12 UNK        -0.2608 
     17 C17        28.0901   25.2471    4.7814 C.3       12 UNK        -0.0989 
     18 CA         27.7365   25.5824    3.3041 C.3       5 UNK         0.0716 
     19 N          26.4251   25.0718    2.8790 N.am      5 UNK        -0.4135 
     20 C          25.2315   25.4215    3.3808 C.2       4 UNK         0.5031 
     21 O          25.0745   26.2679    4.2633 O.2       4 UNK        -0.5229 
     22 CA         24.0102   24.6732    2.8085 C.3       4 UNK         0.0329 
     23 CB         22.6654   25.2029    3.3526 C.3       4 UNK        -0.2001 
     24 N          23.9924   24.6243    1.3418 N.am      4 UNK        -0.4303 
     25 C          23.9382   25.6542    0.4855 C.2       3 UNK         0.5044 
     26 O          23.9174   26.8353    0.8331 O.2       3 UNK        -0.5152 
     27 CA         23.8998   25.2879   -1.0145 C.3       3 UNK         0.0319 
     28 CB         23.6717   26.5162   -1.9148 C.3       3 UNK        -0.2001 
     29 N          25.1210   24.6019   -1.4471 N.am      3 UNK        -0.4354 
     30 C          25.4444   23.3329   -1.1499 C.2       2 UNK         0.4964 
     31 O          24.6948   22.5756   -0.5309 O.2       2 UNK        -0.5047 
     32 CA         26.8313   22.8087   -1.5748 C.3       2 UNK         0.0288 
     33 CB         26.7003   21.8700   -2.7854 C.3       2 UNK        -0.2113 
     34 N          27.8189   23.8459   -1.8843 N.am      2 UNK        -0.4145 
     35 C          28.2493   24.7982   -1.0432 C.2       1 UNK         0.5006 
     36 O          27.8657   24.8999    0.1234 O.2       1 UNK        -0.5103 
     37 C          27.8934   27.0759    2.9571 C.2       5 UNK         0.5055 
     38 O          28.2680   27.8847    3.8095 O.2       5 UNK        -0.5220 
     39 N          27.6079   27.4142    1.6931 N.am      6 UNK        -0.4450 
     40 CA         27.6953   28.7644    1.1313 C.3       6 UNK         0.0367 
     41 CB         26.7253   28.8772   -0.0590 C.3       6 UNK        -0.1929 
     42 C          29.1432   29.1378    0.7569 C.2       6 UNK         0.5070 
     43 O          29.4184   29.4788   -0.3950 O.2       6 UNK        -0.5237 
     44 N          30.0509   29.0452    1.7339 N.am      7 UNK        -0.4739 
     45 CA         31.4596   29.4123    1.6048 C.3       7 UNK         0.0276 
     46 CB         32.2467   28.7656    2.7541 C.3       7 UNK        -0.1927 
     47 C          31.6330   30.9404    1.6125 C.2       7 UNK         0.5013 
     48 O          30.9071   31.6389    2.3257 O.2       7 UNK        -0.5193 
     49 N          32.5995   31.4336    0.8295 N.am      8 UNK        -0.4253 
     50 CA         32.9376   32.8526    0.7306 C.3       8 UNK         0.0242 
     51 CB         33.6229   33.1153   -0.6226 C.3       8 UNK        -0.2000 
     52 C          33.8344   33.2618    1.9081 C.2       8 UNK         0.4948 
     53 O          35.0376   32.9966    1.8692 O.2       8 UNK        -0.5275 
     54 N          33.2298   33.8606    2.9445 N.am      9 UNK        -0.4246 
     55 CA         33.8213   34.3938    4.1861 C.3       9 UNK         0.0261 
     56 CB         34.8209   35.5281    3.8852 C.3       9 UNK        -0.1959 
     57 C          34.4482   33.3482    5.1317 C.2       9 UNK         0.5033 
     58 O          34.3225   33.4899    6.3495 O.2       9 UNK        -0.5390 
     59 N          35.1052   32.3289    4.5705 N.am      10 UNK        -0.4215 
     60 CA         35.6615   31.1666    5.2619 C.3       10 UNK         0.0240 
     61 CB         36.5702   30.4121    4.2744 C.3       10 UNK        -0.1982 
     62 C          34.5693   30.2310    5.8142 C.2       10 UNK         0.4970 
     63 O          33.3933   30.3773    5.4756 O.2       10 UNK        -0.4916 
     64 N          35.0004   29.2614    6.6308 N.am      11 UNK        -0.4279 
     65 CA         34.1832   28.1686    7.1937 C.3       11 UNK         0.1003 
     66 C          33.1648   28.6063    8.2908 C.2       11 UNK         0.5709 
     67 N          33.2240   29.8297    8.8035 N.am      11 UNK        -0.7358 
     68 O          32.3296   27.8118    8.7169 O.2       11 UNK        -0.4999 
     69 C69        33.5296   27.2626    6.1065 C.3       12 UNK        -0.0954 
     70 S70        34.7218   26.6558    4.8611 S.3       12 UNK        -0.2268 
     71 C71        34.5007   24.8532    4.9634 C.3       12 UNK         0.0203 
     72 H72        28.9189   26.6414   -5.5521 H         1 UNK         0.0888 
     73 H73        27.2272   26.1472   -5.6539 H         1 UNK         0.0888 
     74 H74        27.6366   27.8321   -5.3220 H         1 UNK         0.0888 
     75 H75        29.8595   26.0366   -3.6256 H         1 UNK         0.3017 
     76 H76        28.9985   26.7895   -1.1145 H         1 UNK         0.0873 
     77 H77        30.9322   24.4692   -1.6299 H         1 UNK         0.0745 
     78 H78        31.3644   26.1323   -1.9023 H         1 UNK         0.0745 
     79 H79        30.6895   23.3976    0.6740 H         1 UNK         0.0705 
     80 H80        32.4001   23.6848    0.4312 H         1 UNK         0.0705 
     81 H81        33.7548   24.7575    2.3446 H         1 UNK         0.1334 
     82 H82        32.2792   23.9985    6.2965 H         1 UNK         0.1417 
     83 H83        29.7988   23.2081    2.8861 H         1 UNK         0.1562 
     84 H84        29.9205   23.6317    6.6228 H         1 UNK         0.0748 
     85 H85        29.9095   22.0648    5.8505 H         1 UNK         0.0748 
     86 H86        29.0696   25.6546    5.0390 H         1 UNK         0.0940 
     87 H87        27.3846   25.7167    5.4684 H         1 UNK         0.0940 
     88 H88        28.4689   25.0773    2.6759 H         1 UNK         0.0703 
     89 H89        26.4517   24.4043    2.1209 H         1 UNK         0.3081 
     90 H90        24.1098   23.6397    3.1440 H         1 UNK         0.0719 
     91 H91        22.5069   26.2501    3.0929 H         1 UNK         0.0809 
     92 H92        21.8251   24.6292    2.9618 H         1 UNK         0.0809 
     93 H93        22.6282   25.1297    4.4403 H         1 UNK         0.0809 
     94 H94        24.0550   23.6986    0.9259 H         1 UNK         0.2990 
     95 H95        23.0539   24.6128   -1.1607 H         1 UNK         0.0690 
     96 H96        23.6126   26.2336   -2.9659 H         1 UNK         0.0788 
     97 H97        24.4746   27.2472   -1.8105 H         1 UNK         0.0788 
     98 H98        22.7379   27.0193   -1.6605 H         1 UNK         0.0788 
     99 H99        25.7951   25.1737   -1.9468 H         1 UNK         0.2993 
    100 H100       27.2208   22.2322   -0.7330 H         1 UNK         0.0949 
    101 H101       25.9962   21.0620   -2.5803 H         1 UNK         0.0767 
    102 H102       26.3403   22.3995   -3.6686 H         1 UNK         0.0767 
    103 H103       27.6553   21.4071   -3.0353 H         1 UNK         0.0767 
    104 H104       28.1730   23.8604   -2.8295 H         1 UNK         0.3013 
    105 H105       27.3882   26.6617    1.0491 H         1 UNK         0.3121 
    106 H106       27.3690   29.4813    1.8878 H         1 UNK         0.0774 
    107 H107       25.6957   28.7067    0.2533 H         1 UNK         0.0815 
    108 H108       26.7628   29.8720   -0.5044 H         1 UNK         0.0815 
    109 H109       26.9605   28.1588   -0.8435 H         1 UNK         0.0815 
    110 H110       29.7254   28.7762    2.6560 H         1 UNK         0.2987 
    111 H111       31.8351   29.0149    0.6590 H         1 UNK         0.0949 
    112 H112       33.3033   29.0336    2.7139 H         1 UNK         0.0806 
    113 H113       31.8660   29.0877    3.7235 H         1 UNK         0.0806 
    114 H114       32.1868   27.6772    2.7179 H         1 UNK         0.0806 
    115 H115       33.1797   30.7958    0.3036 H         1 UNK         0.3010 
    116 H116       32.0213   33.4471    0.7588 H         1 UNK         0.0829 
    117 H117       32.9596   32.8787   -1.4548 H         1 UNK         0.0813 
    118 H118       33.9016   34.1654   -0.7196 H         1 UNK         0.0813 
    119 H119       34.5328   32.5253   -0.7419 H         1 UNK         0.0813 
    120 H120       32.2217   33.9363    2.8973 H         1 UNK         0.3038 
    121 H121       32.9872   34.8350    4.7344 H         1 UNK         0.0769 
    122 H122       35.6947   35.1690    3.3407 H         1 UNK         0.0811 
    123 H123       35.1811   35.9837    4.8086 H         1 UNK         0.0811 
    124 H124       34.3583   36.3183    3.2939 H         1 UNK         0.0811 
    125 H125       35.1670   32.3374    3.5543 H         1 UNK         0.3204 
    126 H126       36.2630   31.5245    6.1000 H         1 UNK         0.0748 
    127 H127       37.3538   31.0606    3.8814 H         1 UNK         0.0771 
    128 H128       37.0649   29.5655    4.7519 H         1 UNK         0.0771 
    129 H129       36.0038   30.0216    3.4275 H         1 UNK         0.0771 
    130 H130       35.9818   29.2264    6.8646 H         1 UNK         0.2980 
    131 H131       34.8959   27.5425    7.7313 H         1 UNK         0.0545 
    132 H132       32.5690   30.0961    9.5215 H         1 UNK         0.3459 
    133 H133       33.8997   30.4943    8.4624 H         1 UNK         0.3459 
    134 H134       33.0484   26.4058    6.5791 H         1 UNK         0.0616 
    135 H135       32.7343   27.7956    5.5852 H         1 UNK         0.0616 
    136 H136       35.3081   24.3702    4.4113 H         1 UNK         0.0634 
    137 H137       34.6055   24.5320    6.0009 H         1 UNK         0.0634 
@<TRIPOS>BOND
     1    1    2 1    
     2    1   72 1    
     3    1   73 1    
     4    1   74 1    
     5    2    3 2    
     6    2    4 am   BACKBONE|DICT|INTERRES
     7    4    5 1    
     8    4   75 1    
     9    5    6 1    
    10    5   35 1    
    11    5   76 1    
    12    6    7 1    
    13    6   77 1    
    14    6   78 1    
    15    7    8 1    
    16    8    9 1    
    17    8   79 1    
    18    8   80 1    
    19    9   10 ar   
    20    9   14 ar   
    21   10   11 ar   
    22   10   81 1    
    23   11   12 ar   
    24   11   71 1    
    25   12   13 ar   
    26   12   82 1    
    27   13   14 ar   
    28   13   15 1    
    29   14   83 1    
    30   15   16 1    
    31   15   84 1    
    32   15   85 1    
    33   16   17 1    
    34   17   18 1    
    35   17   86 1    
    36   17   87 1    
    37   18   19 1    
    38   18   37 1    
    39   18   88 1    
    40   19   20 am   BACKBONE|DICT|INTERRES
    41   19   89 1    
    42   20   21 2    
    43   20   22 1    
    44   22   23 1    
    45   22   24 1    
    46   22   90 1    
    47   23   91 1    
    48   23   92 1    
    49   23   93 1    
    50   24   25 am   BACKBONE|DICT|INTERRES
    51   24   94 1    
    52   25   26 2    
    53   25   27 1    
    54   27   28 1    
    55   27   29 1    
    56   27   95 1    
    57   28   96 1    
    58   28   97 1    
    59   28   98 1    
    60   29   30 am   BACKBONE|DICT|INTERRES
    61   29   99 1    
    62   30   31 2    
    63   30   32 1    
    64   32   33 1    
    65   32   34 1    
    66   32  100 1    
    67   33  101 1    
    68   33  102 1    
    69   33  103 1    
    70   34   35 am   BACKBONE|DICT|INTERRES
    71   34  104 1    
    72   35   36 2    
    73   37   38 2    
    74   37   39 am   BACKBONE|DICT|INTERRES
    75   39   40 1    
    76   39  105 1    
    77   40   41 1    
    78   40   42 1    
    79   40  106 1    
    80   41  107 1    
    81   41  108 1    
    82   41  109 1    
    83   42   43 2    
    84   42   44 am   BACKBONE|DICT|INTERRES
    85   44   45 1    
    86   44  110 1    
    87   45   46 1    
    88   45   47 1    
    89   45  111 1    
    90   46  112 1    
    91   46  113 1    
    92   46  114 1    
    93   47   48 2    
    94   47   49 am   BACKBONE|DICT|INTERRES
    95   49   50 1    
    96   49  115 1    
    97   50   51 1    
    98   50   52 1    
    99   50  116 1    
   100   51  117 1    
   101   51  118 1    
   102   51  119 1    
   103   52   53 2    
   104   52   54 am   BACKBONE|DICT|INTERRES
   105   54   55 1    
   106   54  120 1    
   107   55   56 1    
   108   55   57 1    
   109   55  121 1    
   110   56  122 1    
   111   56  123 1    
   112   56  124 1    
   113   57   58 2    
   114   57   59 am   BACKBONE|DICT|INTERRES
   115   59   60 1    
   116   59  125 1    
   117   60   61 1    
   118   60   62 1    
   119   60  126 1    
   120   61  127 1    
   121   61  128 1    
   122   61  129 1    
   123   62   63 2    
   124   62   64 am   BACKBONE|DICT|INTERRES
   125   64   65 1    
   126   64  130 1    
   127   65   66 1    
   128   65   69 1    
   129   65  131 1    
   130   66   67 am   BACKBONE|DICT|INTERRES
   131   66   68 2    
   132   67  132 1    
   133   67  133 1    
   134   69   70 1    
   135   69  134 1    
   136   69  135 1    
   137   70   71 1    
   138   71  136 1    
   139   71  137 1    
@<TRIPOS>SUBSTRUCTURE
     1 UNK         1 GROUP             0       ****    0 ROOT    
