@<TRIPOS>MOLECULE
3R136
137   139    1
SMALL
USER_CHARGES


@<TRIPOS>ATOM
      1 CA         31.9919   24.3536   -1.5242 C.3       0 UNK        -0.1979 
      2 C          30.9182   24.0072   -0.5046 C.2       0 UNK         0.4864 
      3 O          30.2438   24.9052    0.0035 O.2       0 UNK        -0.5359 
      4 N          30.7310   22.7122   -0.2144 N.am      1 UNK        -0.4318 
      5 CA         29.7764   22.1630    0.7626 C.3       1 UNK         0.0824 
      6 C6         30.2170   20.7389    1.2048 C.3       12 UNK        -0.0944 
      7 S7         29.7601   20.3361    2.9249 S.3       12 UNK        -0.2672 
      8 C8         31.2454   20.8664    3.8444 C.3       12 UNK         0.0333 
      9 C9         31.3072   22.3821    3.9548 C.ar      12 UNK        -0.0807 
     10 C10        32.1679   23.1261    3.1408 C.ar      12 UNK        -0.0894 
     11 C11        32.1484   24.5245    3.1835 C.ar      12 UNK        -0.0804 
     12 C12        31.2786   25.1766    4.0609 C.ar      12 UNK        -0.0824 
     13 C13        30.4275   24.4399    4.8895 C.ar      12 UNK        -0.0762 
     14 C14        30.4554   23.0444    4.8421 C.ar      12 UNK        -0.0782 
     15 C15        29.4310   25.1495    5.7909 C.3       12 UNK         0.0230 
     16 S16        27.7156   24.9550    5.1971 S.3       12 UNK        -0.2608 
     17 C17        27.8262   25.4599    3.4434 C.3       12 UNK        -0.0989 
     18 CA         28.0782   26.9769    3.2520 C.3       5 UNK         0.0716 
     19 N          28.6928   27.2488    1.9496 N.am      5 UNK        -0.4135 
     20 C          29.5901   28.2116    1.6911 C.2       4 UNK         0.5031 
     21 O          30.1147   28.9194    2.5520 O.2       4 UNK        -0.5229 
     22 CA         29.9578   28.4630    0.2152 C.3       4 UNK         0.0329 
     23 CB         31.4104   28.0679   -0.1000 C.3       4 UNK        -0.2001 
     24 N          29.0392   27.8296   -0.7375 N.am      4 UNK        -0.4303 
     25 C          27.8254   28.3237   -1.0200 C.2       3 UNK         0.5044 
     26 O          27.3784   29.3486   -0.5055 O.2       3 UNK        -0.5152 
     27 CA         26.9392   27.5269   -1.9948 C.3       3 UNK         0.0319 
     28 CB         27.3141   27.8534   -3.4489 C.3       3 UNK        -0.2001 
     29 N          26.9525   26.0713   -1.8015 N.am      3 UNK        -0.4354 
     30 C          26.6613   25.4298   -0.6607 C.2       2 UNK         0.4964 
     31 O          26.4505   26.0052    0.4060 O.2       2 UNK        -0.5047 
     32 CA         26.6506   23.8959   -0.6908 C.3       2 UNK         0.0288 
     33 CB         26.4352   23.2954   -2.0983 C.3       2 UNK        -0.2113 
     34 N          27.9266   23.4733   -0.1369 N.am      2 UNK        -0.4145 
     35 C          28.3054   22.2626    0.2797 C.2       1 UNK         0.5006 
     36 O          27.5690   21.2742    0.2692 O.2       1 UNK        -0.5103 
     37 C          26.7843   27.7977    3.4473 C.2       5 UNK         0.5055 
     38 O          26.4388   28.1161    4.5861 O.2       5 UNK        -0.5220 
     39 N          26.0907   28.1360    2.3480 N.am      6 UNK        -0.4450 
     40 CA         24.9834   29.0972    2.3307 C.3       6 UNK         0.0367 
     41 CB         24.2135   28.9852    1.0051 C.3       6 UNK        -0.1929 
     42 C          25.4816   30.5350    2.5680 C.2       6 UNK         0.5070 
     43 O          24.8131   31.3051    3.2591 O.2       6 UNK        -0.5237 
     44 N          26.6669   30.8525    2.0281 N.am      7 UNK        -0.4739 
     45 CA         27.4760   32.0166    2.3973 C.3       7 UNK         0.0276 
     46 CB         28.5639   32.2136    1.3284 C.3       7 UNK        -0.1927 
     47 C          28.1094   31.8396    3.7930 C.2       7 UNK         0.5013 
     48 O          28.0590   30.7511    4.3682 O.2       7 UNK        -0.5193 
     49 N          28.7271   32.9044    4.3188 N.am      8 UNK        -0.4253 
     50 CA         29.3668   32.9393    5.6408 C.3       8 UNK         0.0242 
     51 CB         29.5229   34.4103    6.0729 C.3       8 UNK        -0.2000 
     52 C          30.6997   32.1571    5.7022 C.2       8 UNK         0.4948 
     53 O          31.7373   32.7487    6.0058 O.2       8 UNK        -0.5275 
     54 N          30.6406   30.8474    5.4114 N.am      9 UNK        -0.4246 
     55 CA         31.7408   29.8732    5.3692 C.3       9 UNK         0.0261 
     56 CB         32.2644   29.5808    6.7906 C.3       9 UNK        -0.1959 
     57 C          32.8519   30.3102    4.3973 C.2       9 UNK         0.5033 
     58 O          34.0141   30.4395    4.7897 O.2       9 UNK        -0.5390 
     59 N          32.4601   30.5632    3.1411 N.am      10 UNK        -0.4215 
     60 CA         33.2949   31.2069    2.1194 C.3       10 UNK         0.0240 
     61 CB         32.4227   31.6291    0.9259 C.3       10 UNK        -0.1982 
     62 C          34.5223   30.3937    1.6654 C.2       10 UNK         0.4970 
     63 O          35.4271   30.9758    1.0655 O.2       10 UNK        -0.4916 
     64 N          34.5553   29.0899    1.9718 N.am      11 UNK        -0.4279 
     65 CA         35.7443   28.2382    1.8233 C.3       11 UNK         0.1003 
     66 C          36.8426   28.4672    2.9059 C.2       11 UNK         0.5709 
     67 N          36.5885   29.2111    3.9778 N.am      11 UNK        -0.7358 
     68 O          37.9576   27.9720    2.7587 O.2       11 UNK        -0.4999 
     69 C69        35.3720   26.7407    1.6643 C.3       12 UNK        -0.0954 
     70 S70        34.4688   26.0306    3.0856 S.3       12 UNK        -0.2268 
     71 C71        33.0202   25.3357    2.2409 C.3       12 UNK         0.0203 
     72 H72        31.5575   24.9219   -2.3460 H         1 UNK         0.0888 
     73 H73        32.7674   24.9628   -1.0616 H         1 UNK         0.0888 
     74 H74        32.4625   23.4626   -1.9391 H         1 UNK         0.0888 
     75 H75        31.2844   22.0233   -0.7036 H         1 UNK         0.3017 
     76 H76        29.8286   22.8143    1.6367 H         1 UNK         0.0873 
     77 H77        29.8153   19.9721    0.5398 H         1 UNK         0.0745 
     78 H78        31.3007   20.6365    1.1295 H         1 UNK         0.0745 
     79 H79        31.2137   20.4330    4.8451 H         1 UNK         0.0705 
     80 H80        32.1432   20.4688    3.3688 H         1 UNK         0.0705 
     81 H81        32.8220   22.6185    2.4452 H         1 UNK         0.1334 
     82 H82        31.2476   26.2577    4.0762 H         1 UNK         0.1417 
     83 H83        29.7756   22.4741    5.4610 H         1 UNK         0.1562 
     84 H84        29.6692   26.2106    5.8769 H         1 UNK         0.0748 
     85 H85        29.5031   24.7421    6.8003 H         1 UNK         0.0748 
     86 H86        28.6188   24.8792    2.9695 H         1 UNK         0.0940 
     87 H87        26.9118   25.1466    2.9356 H         1 UNK         0.0940 
     88 H88        28.7782   27.3120    4.0188 H         1 UNK         0.0703 
     89 H89        28.3204   26.7210    1.1712 H         1 UNK         0.3081 
     90 H90        29.8930   29.5425    0.0709 H         1 UNK         0.0719 
     91 H91        31.5451   26.9928   -0.1586 H         1 UNK         0.0809 
     92 H92        31.7324   28.4900   -1.0519 H         1 UNK         0.0809 
     93 H93        32.0962   28.4335    0.6634 H         1 UNK         0.0809 
     94 H94        29.3348   26.9569   -1.1537 H         1 UNK         0.2990 
     95 H95        25.9112   27.8573   -1.8320 H         1 UNK         0.0690 
     96 H96        26.6142   27.4001   -4.1512 H         1 UNK         0.0788 
     97 H97        28.3161   27.5013   -3.6977 H         1 UNK         0.0788 
     98 H98        27.2937   28.9300   -3.6254 H         1 UNK         0.0788 
     99 H99        27.1333   25.5118   -2.6225 H         1 UNK         0.2993 
    100 H100       25.8488   23.5587   -0.0309 H         1 UNK         0.0949 
    101 H101       26.3078   22.2140   -2.0460 H         1 UNK         0.0767 
    102 H102       25.5343   23.6968   -2.5648 H         1 UNK         0.0767 
    103 H103       27.2763   23.4911   -2.7644 H         1 UNK         0.0767 
    104 H104       28.6388   24.2020   -0.0747 H         1 UNK         0.3013 
    105 H105       26.3651   27.7340    1.4590 H         1 UNK         0.3121 
    106 H106       24.2995   28.8415    3.1428 H         1 UNK         0.0774 
    107 H107       24.8282   29.2679    0.1508 H         1 UNK         0.0815 
    108 H108       23.3426   29.6417    1.0079 H         1 UNK         0.0815 
    109 H109       23.8547   27.9693    0.8385 H         1 UNK         0.0815 
    110 H110       27.1074   30.1701    1.4225 H         1 UNK         0.2987 
    111 H111       26.8296   32.8967    2.4192 H         1 UNK         0.0949 
    112 H112       29.2907   31.4023    1.3468 H         1 UNK         0.0806 
    113 H113       28.1361   32.2567    0.3264 H         1 UNK         0.0806 
    114 H114       29.1107   33.1439    1.4850 H         1 UNK         0.0806 
    115 H115       28.7658   33.7584    3.7811 H         1 UNK         0.3010 
    116 H116       28.6933   32.4616    6.3560 H         1 UNK         0.0829 
    117 H117       30.1778   34.9626    5.3978 H         1 UNK         0.0813 
    118 H118       28.5602   34.9211    6.1009 H         1 UNK         0.0813 
    119 H119       29.9517   34.4809    7.0736 H         1 UNK         0.0813 
    120 H120       29.7313   30.5018    5.1055 H         1 UNK         0.3038 
    121 H121       31.3242   28.9454    4.9742 H         1 UNK         0.0769 
    122 H122       33.0281   28.8022    6.7714 H         1 UNK         0.0811 
    123 H123       32.7122   30.4641    7.2472 H         1 UNK         0.0811 
    124 H124       31.4640   29.2342    7.4442 H         1 UNK         0.0811 
    125 H125       31.5050   30.3243    2.8882 H         1 UNK         0.3204 
    126 H126       33.6912   32.1199    2.5691 H         1 UNK         0.0748 
    127 H127       33.0192   32.1326    0.1638 H         1 UNK         0.0771 
    128 H128       31.9408   30.7788    0.4488 H         1 UNK         0.0771 
    129 H129       31.6455   32.3279    1.2346 H         1 UNK         0.0771 
    130 H130       33.7905   28.6938    2.4960 H         1 UNK         0.2980 
    131 H131       36.2209   28.5248    0.8838 H         1 UNK         0.0545 
    132 H132       35.6731   29.6224    4.1332 H         1 UNK         0.3459 
    133 H133       37.3170   29.3496    4.6592 H         1 UNK         0.3459 
    134 H134       34.7735   26.6213    0.7599 H         1 UNK         0.0616 
    135 H135       36.2679   26.1400    1.4975 H         1 UNK         0.0616 
    136 H136       33.3531   24.7159    1.4074 H         1 UNK         0.0634 
    137 H137       32.4314   26.1467    1.8141 H         1 UNK         0.0634 
@<TRIPOS>BOND
     1    1    2 1    
     2    1   72 1    
     3    1   73 1    
     4    1   74 1    
     5    2    3 2    
     6    2    4 am   BACKBONE|DICT|INTERRES
     7    4    5 1    
     8    4   75 1    
     9    5    6 1    
    10    5   35 1    
    11    5   76 1    
    12    6    7 1    
    13    6   77 1    
    14    6   78 1    
    15    7    8 1    
    16    8    9 1    
    17    8   79 1    
    18    8   80 1    
    19    9   10 ar   
    20    9   14 ar   
    21   10   11 ar   
    22   10   81 1    
    23   11   12 ar   
    24   11   71 1    
    25   12   13 ar   
    26   12   82 1    
    27   13   14 ar   
    28   13   15 1    
    29   14   83 1    
    30   15   16 1    
    31   15   84 1    
    32   15   85 1    
    33   16   17 1    
    34   17   18 1    
    35   17   86 1    
    36   17   87 1    
    37   18   19 1    
    38   18   37 1    
    39   18   88 1    
    40   19   20 am   BACKBONE|DICT|INTERRES
    41   19   89 1    
    42   20   21 2    
    43   20   22 1    
    44   22   23 1    
    45   22   24 1    
    46   22   90 1    
    47   23   91 1    
    48   23   92 1    
    49   23   93 1    
    50   24   25 am   BACKBONE|DICT|INTERRES
    51   24   94 1    
    52   25   26 2    
    53   25   27 1    
    54   27   28 1    
    55   27   29 1    
    56   27   95 1    
    57   28   96 1    
    58   28   97 1    
    59   28   98 1    
    60   29   30 am   BACKBONE|DICT|INTERRES
    61   29   99 1    
    62   30   31 2    
    63   30   32 1    
    64   32   33 1    
    65   32   34 1    
    66   32  100 1    
    67   33  101 1    
    68   33  102 1    
    69   33  103 1    
    70   34   35 am   BACKBONE|DICT|INTERRES
    71   34  104 1    
    72   35   36 2    
    73   37   38 2    
    74   37   39 am   BACKBONE|DICT|INTERRES
    75   39   40 1    
    76   39  105 1    
    77   40   41 1    
    78   40   42 1    
    79   40  106 1    
    80   41  107 1    
    81   41  108 1    
    82   41  109 1    
    83   42   43 2    
    84   42   44 am   BACKBONE|DICT|INTERRES
    85   44   45 1    
    86   44  110 1    
    87   45   46 1    
    88   45   47 1    
    89   45  111 1    
    90   46  112 1    
    91   46  113 1    
    92   46  114 1    
    93   47   48 2    
    94   47   49 am   BACKBONE|DICT|INTERRES
    95   49   50 1    
    96   49  115 1    
    97   50   51 1    
    98   50   52 1    
    99   50  116 1    
   100   51  117 1    
   101   51  118 1    
   102   51  119 1    
   103   52   53 2    
   104   52   54 am   BACKBONE|DICT|INTERRES
   105   54   55 1    
   106   54  120 1    
   107   55   56 1    
   108   55   57 1    
   109   55  121 1    
   110   56  122 1    
   111   56  123 1    
   112   56  124 1    
   113   57   58 2    
   114   57   59 am   BACKBONE|DICT|INTERRES
   115   59   60 1    
   116   59  125 1    
   117   60   61 1    
   118   60   62 1    
   119   60  126 1    
   120   61  127 1    
   121   61  128 1    
   122   61  129 1    
   123   62   63 2    
   124   62   64 am   BACKBONE|DICT|INTERRES
   125   64   65 1    
   126   64  130 1    
   127   65   66 1    
   128   65   69 1    
   129   65  131 1    
   130   66   67 am   BACKBONE|DICT|INTERRES
   131   66   68 2    
   132   67  132 1    
   133   67  133 1    
   134   69   70 1    
   135   69  134 1    
   136   69  135 1    
   137   70   71 1    
   138   71  136 1    
   139   71  137 1    
@<TRIPOS>SUBSTRUCTURE
     1 UNK         1 GROUP             0       ****    0 ROOT    
