@<TRIPOS>MOLECULE
3R136
137   139    1
SMALL
USER_CHARGES


@<TRIPOS>ATOM
      1 CA         28.9961   22.7188    6.9322 C.3       0 UNK        -0.1979 
      2 C          28.4501   22.8960    5.5235 C.2       0 UNK         0.4864 
      3 O          27.2799   23.2415    5.3575 O.2       0 UNK        -0.5359 
      4 N          29.2920   22.6787    4.5043 N.am      1 UNK        -0.4318 
      5 CA         28.9495   22.7792    3.0790 C.3       1 UNK         0.0824 
      6 C6         29.8762   21.9029    2.1894 C.3       12 UNK        -0.0944 
      7 S7         31.6695   22.0791    2.5145 S.3       12 UNK        -0.2672 
      8 C8         32.3612   22.3872    0.8545 C.3       12 UNK         0.0333 
      9 C9         32.6152   23.8697    0.6338 C.ar      12 UNK        -0.0807 
     10 C10        33.8847   24.4100    0.8616 C.ar      12 UNK        -0.0894 
     11 C11        34.1088   25.7834    0.7183 C.ar      12 UNK        -0.0804 
     12 C12        33.0503   26.6165    0.3451 C.ar      12 UNK        -0.0824 
     13 C13        31.7809   26.0837    0.1024 C.ar      12 UNK        -0.0762 
     14 C14        31.5753   24.7076    0.2274 C.ar      12 UNK        -0.0782 
     15 C15        30.6165   27.0033   -0.2161 C.3       12 UNK         0.0230 
     16 S16        30.7034   27.7102   -1.8889 S.3       12 UNK        -0.2608 
     17 C17        29.4946   29.0682   -1.6982 C.3       12 UNK        -0.0989 
     18 CA         28.0623   28.7322   -2.1966 C.3       5 UNK         0.0716 
     19 N          27.5759   27.4698   -1.6348 N.am      5 UNK        -0.4135 
     20 C          26.9761   26.4894   -2.3218 C.2       4 UNK         0.5031 
     21 O          26.7892   26.5162   -3.5386 O.2       4 UNK        -0.5229 
     22 CA         26.4717   25.2789   -1.5128 C.3       4 UNK         0.0329 
     23 CB         27.4544   24.1045   -1.6461 C.3       4 UNK        -0.2001 
     24 N          26.2488   25.5758   -0.0919 N.am      4 UNK        -0.4303 
     25 C          25.3144   26.4254    0.3657 C.2       3 UNK         0.5044 
     26 O          24.5224   27.0137   -0.3709 O.2       3 UNK        -0.5152 
     27 CA         25.2753   26.7211    1.8771 C.3       3 UNK         0.0319 
     28 CB         24.1840   25.8799    2.5570 C.3       3 UNK        -0.2001 
     29 N          26.5458   26.5106    2.5749 N.am      3 UNK        -0.4354 
     30 C          27.7032   27.1309    2.3028 C.2       2 UNK         0.4964 
     31 O          27.8409   27.9759    1.4170 O.2       2 UNK        -0.5047 
     32 CA         28.9266   26.6824    3.1250 C.3       2 UNK         0.0288 
     33 CB         28.9758   27.4694    4.4444 C.3       2 UNK        -0.2113 
     34 N          28.9879   25.2415    3.4210 N.am      2 UNK        -0.4145 
     35 C          28.8079   24.2275    2.5559 C.2       1 UNK         0.5006 
     36 O          28.5039   24.3974    1.3754 O.2       1 UNK        -0.5103 
     37 C          27.0931   29.8853   -1.8454 C.2       5 UNK         0.5055 
     38 O          27.4703   31.0474   -1.9973 O.2       5 UNK        -0.5220 
     39 N          25.9005   29.5630   -1.3148 N.am      6 UNK        -0.4450 
     40 CA         24.9390   30.4219   -0.6088 C.3       6 UNK         0.0367 
     41 CB         24.5196   31.6639   -1.4204 C.3       6 UNK        -0.1929 
     42 C          25.4216   30.7883    0.8061 C.2       6 UNK         0.5070 
     43 O          24.6666   30.6103    1.7620 O.2       6 UNK        -0.5237 
     44 N          26.6718   31.2446    0.9257 N.am      7 UNK        -0.4739 
     45 CA         27.3894   31.4670    2.1763 C.3       7 UNK         0.0276 
     46 CB         26.9669   32.8093    2.8023 C.3       7 UNK        -0.1927 
     47 C          28.8953   31.4441    1.8869 C.2       7 UNK         0.5013 
     48 O          29.3056   31.7429    0.7626 O.2       7 UNK        -0.5193 
     49 N          29.6910   31.1288    2.9118 N.am      8 UNK        -0.4253 
     50 CA         31.1511   31.1340    2.8946 C.3       8 UNK         0.0242 
     51 CB         31.6893   29.8824    2.1768 C.3       8 UNK        -0.2000 
     52 C          31.6485   31.2079    4.3424 C.2       8 UNK         0.4948 
     53 O          30.8888   30.8945    5.2643 O.2       8 UNK        -0.5275 
     54 N          32.9052   31.6311    4.5148 N.am      9 UNK        -0.4246 
     55 CA         33.5819   31.7024    5.8080 C.3       9 UNK         0.0261 
     56 CB         34.4874   32.9452    5.8378 C.3       9 UNK        -0.1959 
     57 C          34.4121   30.4306    6.0212 C.2       9 UNK         0.5033 
     58 O          35.1063   30.0012    5.0959 O.2       9 UNK        -0.5390 
     59 N          34.3529   29.8850    7.2438 N.am      10 UNK        -0.4215 
     60 CA         35.0343   28.6819    7.7410 C.3       10 UNK         0.0240 
     61 CB         36.5695   28.8400    7.7161 C.3       10 UNK        -0.1982 
     62 C          34.5777   27.3840    7.0515 C.2       10 UNK         0.4970 
     63 O          33.9709   26.5375    7.7091 O.2       10 UNK        -0.4916 
     64 N          34.8816   27.2474    5.7577 N.am      11 UNK        -0.4279 
     65 CA         34.4540   26.1329    4.9052 C.3       11 UNK         0.1003 
     66 C          32.9899   26.2930    4.4081 C.2       11 UNK         0.5709 
     67 N          32.3816   25.2242    3.9143 N.am      11 UNK        -0.7358 
     68 O          32.4034   27.3713    4.4528 O.2       11 UNK        -0.4999 
     69 C69        35.4710   25.8850    3.7596 C.3       12 UNK        -0.0954 
     70 S70        35.6048   27.2529    2.5539 S.3       12 UNK        -0.2268 
     71 C71        35.4924   26.3692    0.9646 C.3       12 UNK         0.0203 
     72 H72        28.4359   21.9449    7.4563 H         1 UNK         0.0888 
     73 H73        30.0478   22.4326    6.9286 H         1 UNK         0.0888 
     74 H74        28.8995   23.6484    7.4924 H         1 UNK         0.0888 
     75 H75        30.2472   22.4040    4.6912 H         1 UNK         0.3017 
     76 H76        27.9466   22.3605    2.9684 H         1 UNK         0.0873 
     77 H77        29.6646   22.0623    1.1307 H         1 UNK         0.0745 
     78 H78        29.6335   20.8539    2.3655 H         1 UNK         0.0745 
     79 H79        31.7044   21.9916    0.0787 H         1 UNK         0.0705 
     80 H80        33.2969   21.8335    0.7630 H         1 UNK         0.0705 
     81 H81        34.6951   23.7623    1.1668 H         1 UNK         0.1334 
     82 H82        33.2113   27.6823    0.2560 H         1 UNK         0.1417 
     83 H83        30.5972   24.2885    0.0434 H         1 UNK         0.1562 
     84 H84        30.6023   27.8048    0.5199 H         1 UNK         0.0748 
     85 H85        29.6721   26.4705   -0.1047 H         1 UNK         0.0748 
     86 H86        29.8850   29.9271   -2.2476 H         1 UNK         0.0940 
     87 H87        29.4714   29.3835   -0.6530 H         1 UNK         0.0940 
     88 H88        28.0937   28.6663   -3.2859 H         1 UNK         0.0703 
     89 H89        27.6666   27.3802   -0.6289 H         1 UNK         0.3081 
     90 H90        25.5148   24.9734   -1.9411 H         1 UNK         0.0719 
     91 H91        27.1187   23.2355   -1.0801 H         1 UNK         0.0809 
     92 H92        27.5524   23.7960   -2.6878 H         1 UNK         0.0809 
     93 H93        28.4510   24.3711   -1.2932 H         1 UNK         0.0809 
     94 H94        26.8997   25.1514    0.5641 H         1 UNK         0.2990 
     95 H95        25.0153   27.7754    1.9910 H         1 UNK         0.0690 
     96 H96        23.2160   26.0347    2.0780 H         1 UNK         0.0788 
     97 H97        24.0697   26.1506    3.6069 H         1 UNK         0.0788 
     98 H98        24.4066   24.8131    2.5061 H         1 UNK         0.0788 
     99 H99        26.5454   25.8178    3.3100 H         1 UNK         0.2993 
    100 H100       29.8203   26.9260    2.5507 H         1 UNK         0.0949 
    101 H101       28.0947   27.2842    5.0601 H         1 UNK         0.0767 
    102 H102       29.8530   27.2100    5.0359 H         1 UNK         0.0767 
    103 H103       29.0248   28.5426    4.2562 H         1 UNK         0.0767 
    104 H104       29.1758   24.9928    4.3812 H         1 UNK         0.3013 
    105 H105       25.6822   28.5758   -1.2389 H         1 UNK         0.3121 
    106 H106       24.0465   29.8064   -0.4838 H         1 UNK         0.0774 
    107 H107       25.3270   32.3903   -1.5137 H         1 UNK         0.0815 
    108 H108       23.6874   32.1749   -0.9349 H         1 UNK         0.0815 
    109 H109       24.1930   31.3914   -2.4237 H         1 UNK         0.0815 
    110 H110       27.2394   31.3514    0.0886 H         1 UNK         0.2987 
    111 H111       27.1584   30.6487    2.8624 H         1 UNK         0.0949 
    112 H112       27.1686   33.6450    2.1311 H         1 UNK         0.0806 
    113 H113       25.9034   32.8216    3.0414 H         1 UNK         0.0806 
    114 H114       27.5072   32.9973    3.7309 H         1 UNK         0.0806 
    115 H115       29.3014   30.9452    3.8290 H         1 UNK         0.3010 
    116 H116       31.4949   32.0296    2.3724 H         1 UNK         0.0829 
    117 H117       31.4457   29.9042    1.1150 H         1 UNK         0.0813 
    118 H118       32.7749   29.8103    2.2562 H         1 UNK         0.0813 
    119 H119       31.2735   28.9696    2.6033 H         1 UNK         0.0813 
    120 H120       33.4827   31.7997    3.7032 H         1 UNK         0.3038 
    121 H121       32.8469   31.7969    6.6106 H         1 UNK         0.0769 
    122 H122       35.2556   32.9061    5.0641 H         1 UNK         0.0811 
    123 H123       34.9971   33.0335    6.7982 H         1 UNK         0.0811 
    124 H124       33.9110   33.8590    5.6920 H         1 UNK         0.0811 
    125 H125       33.7323   30.3203    7.9130 H         1 UNK         0.3204 
    126 H126       34.7423   28.5930    8.7888 H         1 UNK         0.0748 
    127 H127       37.0565   27.9654    8.1494 H         1 UNK         0.0771 
    128 H128       36.9597   28.9582    6.7049 H         1 UNK         0.0771 
    129 H129       36.8854   29.7065    8.2970 H         1 UNK         0.0771 
    130 H130       35.2570   28.0597    5.2765 H         1 UNK         0.2980 
    131 H131       34.4621   25.2346    5.5257 H         1 UNK         0.0545 
    132 H132       31.4550   25.3322    3.5418 H         1 UNK         0.3459 
    133 H133       32.8576   24.3407    3.8277 H         1 UNK         0.3459 
    134 H134       36.4629   25.7212    4.1832 H         1 UNK         0.0616 
    135 H135       35.2257   24.9570    3.2442 H         1 UNK         0.0616 
    136 H136       35.7346   27.0657    0.1607 H         1 UNK         0.0634 
    137 H137       36.2556   25.5902    0.9320 H         1 UNK         0.0634 
@<TRIPOS>BOND
     1    1    2 1    
     2    1   72 1    
     3    1   73 1    
     4    1   74 1    
     5    2    3 2    
     6    2    4 am   BACKBONE|DICT|INTERRES
     7    4    5 1    
     8    4   75 1    
     9    5    6 1    
    10    5   35 1    
    11    5   76 1    
    12    6    7 1    
    13    6   77 1    
    14    6   78 1    
    15    7    8 1    
    16    8    9 1    
    17    8   79 1    
    18    8   80 1    
    19    9   10 ar   
    20    9   14 ar   
    21   10   11 ar   
    22   10   81 1    
    23   11   12 ar   
    24   11   71 1    
    25   12   13 ar   
    26   12   82 1    
    27   13   14 ar   
    28   13   15 1    
    29   14   83 1    
    30   15   16 1    
    31   15   84 1    
    32   15   85 1    
    33   16   17 1    
    34   17   18 1    
    35   17   86 1    
    36   17   87 1    
    37   18   19 1    
    38   18   37 1    
    39   18   88 1    
    40   19   20 am   BACKBONE|DICT|INTERRES
    41   19   89 1    
    42   20   21 2    
    43   20   22 1    
    44   22   23 1    
    45   22   24 1    
    46   22   90 1    
    47   23   91 1    
    48   23   92 1    
    49   23   93 1    
    50   24   25 am   BACKBONE|DICT|INTERRES
    51   24   94 1    
    52   25   26 2    
    53   25   27 1    
    54   27   28 1    
    55   27   29 1    
    56   27   95 1    
    57   28   96 1    
    58   28   97 1    
    59   28   98 1    
    60   29   30 am   BACKBONE|DICT|INTERRES
    61   29   99 1    
    62   30   31 2    
    63   30   32 1    
    64   32   33 1    
    65   32   34 1    
    66   32  100 1    
    67   33  101 1    
    68   33  102 1    
    69   33  103 1    
    70   34   35 am   BACKBONE|DICT|INTERRES
    71   34  104 1    
    72   35   36 2    
    73   37   38 2    
    74   37   39 am   BACKBONE|DICT|INTERRES
    75   39   40 1    
    76   39  105 1    
    77   40   41 1    
    78   40   42 1    
    79   40  106 1    
    80   41  107 1    
    81   41  108 1    
    82   41  109 1    
    83   42   43 2    
    84   42   44 am   BACKBONE|DICT|INTERRES
    85   44   45 1    
    86   44  110 1    
    87   45   46 1    
    88   45   47 1    
    89   45  111 1    
    90   46  112 1    
    91   46  113 1    
    92   46  114 1    
    93   47   48 2    
    94   47   49 am   BACKBONE|DICT|INTERRES
    95   49   50 1    
    96   49  115 1    
    97   50   51 1    
    98   50   52 1    
    99   50  116 1    
   100   51  117 1    
   101   51  118 1    
   102   51  119 1    
   103   52   53 2    
   104   52   54 am   BACKBONE|DICT|INTERRES
   105   54   55 1    
   106   54  120 1    
   107   55   56 1    
   108   55   57 1    
   109   55  121 1    
   110   56  122 1    
   111   56  123 1    
   112   56  124 1    
   113   57   58 2    
   114   57   59 am   BACKBONE|DICT|INTERRES
   115   59   60 1    
   116   59  125 1    
   117   60   61 1    
   118   60   62 1    
   119   60  126 1    
   120   61  127 1    
   121   61  128 1    
   122   61  129 1    
   123   62   63 2    
   124   62   64 am   BACKBONE|DICT|INTERRES
   125   64   65 1    
   126   64  130 1    
   127   65   66 1    
   128   65   69 1    
   129   65  131 1    
   130   66   67 am   BACKBONE|DICT|INTERRES
   131   66   68 2    
   132   67  132 1    
   133   67  133 1    
   134   69   70 1    
   135   69  134 1    
   136   69  135 1    
   137   70   71 1    
   138   71  136 1    
   139   71  137 1    
@<TRIPOS>SUBSTRUCTURE
     1 UNK         1 GROUP             0       ****    0 ROOT    
