@<TRIPOS>MOLECULE
3R136
137   139    1
SMALL
USER_CHARGES


@<TRIPOS>ATOM
      1 CA         31.3156   26.4995   -3.9630 C.3       0 UNK        -0.1979 
      2 C          30.2460   26.3415   -2.8927 C.2       0 UNK         0.4864 
      3 O          29.4464   25.4079   -2.9735 O.2       0 UNK        -0.5359 
      4 N          30.2202   27.2649   -1.9160 N.am      1 UNK        -0.4318 
      5 CA         29.3587   27.3176   -0.7179 C.3       1 UNK         0.0824 
      6 C6         29.9613   26.5798    0.5103 C.3       12 UNK        -0.0944 
      7 S7         30.2754   24.7943    0.2906 S.3       12 UNK        -0.2672 
      8 C8         31.6578   24.5226    1.4454 C.3       12 UNK         0.0333 
      9 C9         31.2372   24.7653    2.8875 C.ar      12 UNK        -0.0807 
     10 C10        31.4946   25.9965    3.4969 C.ar      12 UNK        -0.0894 
     11 C11        31.0649   26.2464    4.8024 C.ar      12 UNK        -0.0804 
     12 C12        30.3834   25.2478    5.5051 C.ar      12 UNK        -0.0824 
     13 C13        30.1343   24.0051    4.9126 C.ar      12 UNK        -0.0762 
     14 C14        30.5695   23.7679    3.6047 C.ar      12 UNK        -0.0782 
     15 C15        29.3721   22.9288    5.6757 C.3       12 UNK         0.0230 
     16 S16        27.7054   22.6395    4.9913 S.3       12 UNK        -0.2608 
     17 C17        26.9648   24.3034    5.0956 C.3       12 UNK        -0.0989 
     18 CA         27.0342   25.0907    3.7537 C.3       5 UNK         0.0716 
     19 N          26.1208   24.5741    2.7354 N.am      5 UNK        -0.4135 
     20 C          26.4418   23.7041    1.7713 C.2       4 UNK         0.5031 
     21 O          27.5420   23.1612    1.6668 O.2       4 UNK        -0.5229 
     22 CA         25.3639   23.3784    0.7282 C.3       4 UNK         0.0329 
     23 CB         24.0399   24.1558    0.8949 C.3       4 UNK        -0.2001 
     24 N          25.9286   23.6679   -0.5831 N.am      4 UNK        -0.4303 
     25 C          25.7554   22.9449   -1.6955 C.2       3 UNK         0.5044 
     26 O          25.0958   21.9041   -1.7384 O.2       3 UNK        -0.5152 
     27 CA         26.4289   23.4833   -2.9780 C.3       3 UNK         0.0319 
     28 CB         25.7432   22.9932   -4.2713 C.3       3 UNK        -0.2001 
     29 N          26.5742   24.9453   -2.9790 N.am      3 UNK        -0.4354 
     30 C          25.5900   25.8563   -2.8812 C.2       2 UNK         0.4964 
     31 O          24.3917   25.5736   -2.9299 O.2       2 UNK        -0.5047 
     32 CA         26.0044   27.3280   -2.6661 C.3       2 UNK         0.0288 
     33 CB         24.9823   28.0969   -1.8019 C.3       2 UNK        -0.2113 
     34 N          27.3618   27.4963   -2.1279 N.am      2 UNK        -0.4145 
     35 C          27.8554   27.0396   -0.9638 C.2       1 UNK         0.5006 
     36 O          27.1841   26.4407   -0.1182 O.2       1 UNK        -0.5103 
     37 C          26.7545   26.5933    3.9325 C.2       5 UNK         0.5055 
     38 O          26.4834   27.0387    5.0502 O.2       5 UNK        -0.5220 
     39 N          26.7943   27.3590    2.8308 N.am      6 UNK        -0.4450 
     40 CA         26.7419   28.8248    2.8785 C.3       6 UNK         0.0367 
     41 CB         26.4546   29.3848    1.4778 C.3       6 UNK        -0.1929 
     42 C          28.0563   29.4041    3.4304 C.2       6 UNK         0.5070 
     43 O          29.1059   28.7679    3.3091 O.2       6 UNK        -0.5237 
     44 N          27.9834   30.6138    4.0002 N.am      7 UNK        -0.4739 
     45 CA         29.0961   31.3361    4.6301 C.3       7 UNK         0.0276 
     46 CB         28.5213   32.4389    5.5386 C.3       7 UNK        -0.1927 
     47 C          30.1259   31.8809    3.6170 C.2       7 UNK         0.5013 
     48 O          30.3302   33.0931    3.5232 O.2       7 UNK        -0.5193 
     49 N          30.7481   30.9636    2.8708 N.am      8 UNK        -0.4253 
     50 CA         31.8625   31.2021    1.9565 C.3       8 UNK         0.0242 
     51 CB         32.0227   29.9587    1.0639 C.3       8 UNK        -0.2000 
     52 C          33.1689   31.4948    2.7142 C.2       8 UNK         0.4948 
     53 O          33.2495   31.2785    3.9268 O.2       8 UNK        -0.5275 
     54 N          34.2015   31.9135    1.9685 N.am      9 UNK        -0.4246 
     55 CA         35.5522   32.2266    2.4612 C.3       9 UNK         0.0261 
     56 CB         36.4097   32.7277    1.2871 C.3       9 UNK        -0.1959 
     57 C          36.2709   31.0767    3.1988 C.2       9 UNK         0.5033 
     58 O          37.2184   31.3409    3.9400 O.2       9 UNK        -0.5390 
     59 N          35.7993   29.8358    3.0103 N.am      10 UNK        -0.4215 
     60 CA         36.1935   28.6536    3.7792 C.3       10 UNK         0.0240 
     61 CB         35.5636   27.4045    3.1398 C.3       10 UNK        -0.1982 
     62 C          35.8114   28.7378    5.2708 C.2       10 UNK         0.4970 
     63 O          36.5220   28.1609    6.0953 O.2       10 UNK        -0.4916 
     64 N          34.7179   29.4455    5.5857 N.am      11 UNK        -0.4279 
     65 CA         34.2431   29.7045    6.9534 C.3       11 UNK         0.1003 
     66 C          34.4297   31.1904    7.3579 C.2       11 UNK         0.5709 
     67 N          34.2885   32.1427    6.4432 N.am      11 UNK        -0.7358 
     68 O          34.7155   31.4823    8.5167 O.2       11 UNK        -0.4999 
     69 C69        32.7658   29.2767    7.1509 C.3       12 UNK        -0.0954 
     70 S70        32.4996   27.5059    6.8052 S.3       12 UNK        -0.2268 
     71 C71        31.3075   27.6069    5.4372 C.3       12 UNK         0.0203 
     72 H72        31.9465   27.3706   -3.7872 H         1 UNK         0.0888 
     73 H73        31.9548   25.6172   -3.9836 H         1 UNK         0.0888 
     74 H74        30.8524   26.6076   -4.9433 H         1 UNK         0.0888 
     75 H75        30.9046   28.0068   -1.9633 H         1 UNK         0.3017 
     76 H76        29.3603   28.3731   -0.4430 H         1 UNK         0.0873 
     77 H77        30.9089   27.0566    0.7611 H         1 UNK         0.0745 
     78 H78        29.3332   26.7126    1.3930 H         1 UNK         0.0745 
     79 H79        32.0137   23.4974    1.3344 H         1 UNK         0.0705 
     80 H80        32.4945   25.1675    1.1720 H         1 UNK         0.0705 
     81 H81        32.0070   26.7713    2.9447 H         1 UNK         0.1334 
     82 H82        30.0430   25.4455    6.5124 H         1 UNK         0.1417 
     83 H83        30.3523   22.8196    3.1313 H         1 UNK         0.1562 
     84 H84        29.2834   23.1902    6.7314 H         1 UNK         0.0748 
     85 H85        29.9355   21.9954    5.6393 H         1 UNK         0.0748 
     86 H86        27.4746   24.8431    5.8958 H         1 UNK         0.0940 
     87 H87        25.9285   24.2031    5.4225 H         1 UNK         0.0940 
     88 H88        28.0551   25.0410    3.3712 H         1 UNK         0.0703 
     89 H89        25.1968   24.9817    2.7297 H         1 UNK         0.3081 
     90 H90        25.1568   22.3100    0.8175 H         1 UNK         0.0719 
     91 H91        24.1866   25.2338    0.8103 H         1 UNK         0.0809 
     92 H92        23.3226   23.8664    0.1264 H         1 UNK         0.0809 
     93 H93        23.5713   23.9472    1.8574 H         1 UNK         0.0809 
     94 H94        26.5174   24.4942   -0.6215 H         1 UNK         0.2990 
     95 H95        27.4443   23.0842   -2.9719 H         1 UNK         0.0690 
     96 H96        26.2428   23.3844   -5.1574 H         1 UNK         0.0788 
     97 H97        24.6962   23.2943   -4.3146 H         1 UNK         0.0788 
     98 H98        25.7704   21.9051   -4.3396 H         1 UNK         0.0788 
     99 H99        27.5388   25.2708   -2.9395 H         1 UNK         0.2993 
    100 H100       26.0110   27.7841   -3.6572 H         1 UNK         0.0949 
    101 H101       24.8334   27.6160   -0.8346 H         1 UNK         0.0767 
    102 H102       25.3010   29.1241   -1.6245 H         1 UNK         0.0767 
    103 H103       24.0093   28.1415   -2.2927 H         1 UNK         0.0767 
    104 H104       28.0119   27.9600   -2.7475 H         1 UNK         0.3013 
    105 H105       27.0176   26.9350    1.9362 H         1 UNK         0.3121 
    106 H106       25.9242   29.1183    3.5406 H         1 UNK         0.0774 
    107 H107       27.2895   29.2229    0.7980 H         1 UNK         0.0815 
    108 H108       26.2788   30.4604    1.5172 H         1 UNK         0.0815 
    109 H109       25.5656   28.9293    1.0435 H         1 UNK         0.0815 
    110 H110       27.0884   31.0819    4.0168 H         1 UNK         0.2987 
    111 H111       29.6342   30.6334    5.2708 H         1 UNK         0.0949 
    112 H112       27.9523   33.1755    4.9700 H         1 UNK         0.0806 
    113 H113       27.8647   32.0226    6.3028 H         1 UNK         0.0806 
    114 H114       29.3190   32.9724    6.0576 H         1 UNK         0.0806 
    115 H115       30.4508   29.9990    2.9990 H         1 UNK         0.3010 
    116 H116       31.6228   32.0666    1.3340 H         1 UNK         0.0829 
    117 H117       31.1036   29.7505    0.5176 H         1 UNK         0.0813 
    118 H118       32.8098   30.0945    0.3213 H         1 UNK         0.0813 
    119 H119       32.2718   29.0720    1.6486 H         1 UNK         0.0813 
    120 H120       34.0505   32.0506    0.9789 H         1 UNK         0.3038 
    121 H121       35.4491   33.0421    3.1801 H         1 UNK         0.0769 
    122 H122       36.5226   31.9651    0.5155 H         1 UNK         0.0811 
    123 H123       37.4111   33.0018    1.6225 H         1 UNK         0.0811 
    124 H124       35.9739   33.6137    0.8249 H         1 UNK         0.0811 
    125 H125       35.0341   29.7210    2.3633 H         1 UNK         0.3204 
    126 H126       37.2802   28.5628    3.7202 H         1 UNK         0.0748 
    127 H127       35.8641   26.5009    3.6724 H         1 UNK         0.0771 
    128 H128       34.4738   27.4455    3.1614 H         1 UNK         0.0771 
    129 H129       35.8770   27.2862    2.1024 H         1 UNK         0.0771 
    130 H130       34.2132   29.9363    4.8541 H         1 UNK         0.2980 
    131 H131       34.8384   29.1233    7.6601 H         1 UNK         0.0545 
    132 H132       33.9780   31.9113    5.5037 H         1 UNK         0.3459 
    133 H133       34.4171   33.1052    6.7098 H         1 UNK         0.3459 
    134 H134       32.1075   29.8796    6.5220 H         1 UNK         0.0616 
    135 H135       32.4520   29.4587    8.1805 H         1 UNK         0.0616 
    136 H136       30.3629   28.0084    5.8074 H         1 UNK         0.0634 
    137 H137       31.6754   28.3155    4.6928 H         1 UNK         0.0634 
@<TRIPOS>BOND
     1    1    2 1    
     2    1   72 1    
     3    1   73 1    
     4    1   74 1    
     5    2    3 2    
     6    2    4 am   BACKBONE|DICT|INTERRES
     7    4    5 1    
     8    4   75 1    
     9    5    6 1    
    10    5   35 1    
    11    5   76 1    
    12    6    7 1    
    13    6   77 1    
    14    6   78 1    
    15    7    8 1    
    16    8    9 1    
    17    8   79 1    
    18    8   80 1    
    19    9   10 ar   
    20    9   14 ar   
    21   10   11 ar   
    22   10   81 1    
    23   11   12 ar   
    24   11   71 1    
    25   12   13 ar   
    26   12   82 1    
    27   13   14 ar   
    28   13   15 1    
    29   14   83 1    
    30   15   16 1    
    31   15   84 1    
    32   15   85 1    
    33   16   17 1    
    34   17   18 1    
    35   17   86 1    
    36   17   87 1    
    37   18   19 1    
    38   18   37 1    
    39   18   88 1    
    40   19   20 am   BACKBONE|DICT|INTERRES
    41   19   89 1    
    42   20   21 2    
    43   20   22 1    
    44   22   23 1    
    45   22   24 1    
    46   22   90 1    
    47   23   91 1    
    48   23   92 1    
    49   23   93 1    
    50   24   25 am   BACKBONE|DICT|INTERRES
    51   24   94 1    
    52   25   26 2    
    53   25   27 1    
    54   27   28 1    
    55   27   29 1    
    56   27   95 1    
    57   28   96 1    
    58   28   97 1    
    59   28   98 1    
    60   29   30 am   BACKBONE|DICT|INTERRES
    61   29   99 1    
    62   30   31 2    
    63   30   32 1    
    64   32   33 1    
    65   32   34 1    
    66   32  100 1    
    67   33  101 1    
    68   33  102 1    
    69   33  103 1    
    70   34   35 am   BACKBONE|DICT|INTERRES
    71   34  104 1    
    72   35   36 2    
    73   37   38 2    
    74   37   39 am   BACKBONE|DICT|INTERRES
    75   39   40 1    
    76   39  105 1    
    77   40   41 1    
    78   40   42 1    
    79   40  106 1    
    80   41  107 1    
    81   41  108 1    
    82   41  109 1    
    83   42   43 2    
    84   42   44 am   BACKBONE|DICT|INTERRES
    85   44   45 1    
    86   44  110 1    
    87   45   46 1    
    88   45   47 1    
    89   45  111 1    
    90   46  112 1    
    91   46  113 1    
    92   46  114 1    
    93   47   48 2    
    94   47   49 am   BACKBONE|DICT|INTERRES
    95   49   50 1    
    96   49  115 1    
    97   50   51 1    
    98   50   52 1    
    99   50  116 1    
   100   51  117 1    
   101   51  118 1    
   102   51  119 1    
   103   52   53 2    
   104   52   54 am   BACKBONE|DICT|INTERRES
   105   54   55 1    
   106   54  120 1    
   107   55   56 1    
   108   55   57 1    
   109   55  121 1    
   110   56  122 1    
   111   56  123 1    
   112   56  124 1    
   113   57   58 2    
   114   57   59 am   BACKBONE|DICT|INTERRES
   115   59   60 1    
   116   59  125 1    
   117   60   61 1    
   118   60   62 1    
   119   60  126 1    
   120   61  127 1    
   121   61  128 1    
   122   61  129 1    
   123   62   63 2    
   124   62   64 am   BACKBONE|DICT|INTERRES
   125   64   65 1    
   126   64  130 1    
   127   65   66 1    
   128   65   69 1    
   129   65  131 1    
   130   66   67 am   BACKBONE|DICT|INTERRES
   131   66   68 2    
   132   67  132 1    
   133   67  133 1    
   134   69   70 1    
   135   69  134 1    
   136   69  135 1    
   137   70   71 1    
   138   71  136 1    
   139   71  137 1    
@<TRIPOS>SUBSTRUCTURE
     1 UNK         1 GROUP             0       ****    0 ROOT    
