@<TRIPOS>MOLECULE
3R136
137   139    1
SMALL
USER_CHARGES


@<TRIPOS>ATOM
      1 CA         33.9016   22.4795    0.4201 C.3       0 UNK        -0.1979 
      2 C          32.9204   22.6707   -0.7272 C.2       0 UNK         0.4864 
      3 O          33.3152   22.5907   -1.8914 O.2       0 UNK        -0.5359 
      4 N          31.6478   22.9165   -0.4048 N.am      1 UNK        -0.4318 
      5 CA         30.5433   23.0995   -1.3438 C.3       1 UNK         0.0824 
      6 C6         30.5675   24.4894   -2.0568 C.3       12 UNK        -0.0944 
      7 S7         29.8499   25.9259   -1.1778 S.3       12 UNK        -0.2672 
      8 C8         31.1588   26.3798    0.0090 C.3       12 UNK         0.0333 
      9 C9         31.1550   25.5588    1.2957 C.ar      12 UNK        -0.0807 
     10 C10        32.3604   25.3358    1.9638 C.ar      12 UNK        -0.0894 
     11 C11        32.3872   24.6446    3.1763 C.ar      12 UNK        -0.0804 
     12 C12        31.1972   24.1431    3.7109 C.ar      12 UNK        -0.0824 
     13 C13        29.9809   24.3442    3.0521 C.ar      12 UNK        -0.0762 
     14 C14        29.9710   25.0558    1.8471 C.ar      12 UNK        -0.0782 
     15 C15        28.7020   23.7544    3.6441 C.3       12 UNK         0.0230 
     16 S16        27.1977   24.7442    3.3444 S.3       12 UNK        -0.2608 
     17 C17        27.5160   26.2466    4.3380 C.3       12 UNK        -0.0989 
     18 CA         28.0407   27.4468    3.5050 C.3       5 UNK         0.0716 
     19 N          27.2584   27.6586    2.2879 N.am      5 UNK        -0.4135 
     20 C          27.5573   28.5058    1.2974 C.2       4 UNK         0.5031 
     21 O          28.5833   29.1921    1.2822 O.2       4 UNK        -0.5229 
     22 CA         26.5418   28.6157    0.1405 C.3       4 UNK         0.0329 
     23 CB         27.2065   29.0401   -1.1794 C.3       4 UNK        -0.2001 
     24 N          25.7848   27.3797   -0.0854 N.am      4 UNK        -0.4303 
     25 C          24.6773   27.0075    0.5668 C.2       3 UNK         0.5044 
     26 O          24.1740   27.6693    1.4739 O.2       3 UNK        -0.5152 
     27 CA         24.0385   25.6608    0.1807 C.3       3 UNK         0.0319 
     28 CB         23.2187   25.7843   -1.1190 C.3       3 UNK        -0.2001 
     29 N          24.9763   24.5283    0.1291 N.am      3 UNK        -0.4354 
     30 C          25.9845   24.3133   -0.7269 C.2       2 UNK         0.4964 
     31 O          26.2936   25.0788   -1.6443 O.2       2 UNK        -0.5047 
     32 CA         26.7736   23.0157   -0.5268 C.3       2 UNK         0.0288 
     33 CB         26.0498   21.8200   -1.1702 C.3       2 UNK        -0.2113 
     34 N          28.0895   23.1766   -1.1364 N.am      2 UNK        -0.4145 
     35 C          29.2320   22.7011   -0.6331 C.2       1 UNK         0.5006 
     36 O          29.2787   21.9675    0.3594 O.2       1 UNK        -0.5103 
     37 C          28.0451   28.7399    4.3414 C.2       5 UNK         0.5055 
     38 O          26.9676   29.2619    4.6358 O.2       5 UNK        -0.5220 
     39 N          29.2435   29.2422    4.6715 N.am      6 UNK        -0.4450 
     40 CA         29.5114   30.5242    5.3396 C.3       6 UNK         0.0367 
     41 CB         28.7854   30.6374    6.6981 C.3       6 UNK        -0.1929 
     42 C          29.2821   31.7595    4.4418 C.2       6 UNK         0.5070 
     43 O          29.3677   32.8788    4.9491 O.2       6 UNK        -0.5237 
     44 N          29.0206   31.5593    3.1408 N.am      7 UNK        -0.4739 
     45 CA         28.8234   32.6228    2.1535 C.3       7 UNK         0.0276 
     46 CB         27.4188   32.5116    1.5347 C.3       7 UNK        -0.1927 
     47 C          29.9151   32.5703    1.0775 C.2       7 UNK         0.5013 
     48 O          30.6076   33.5688    0.8777 O.2       7 UNK        -0.5193 
     49 N          30.0657   31.4145    0.4136 N.am      8 UNK        -0.4253 
     50 CA         31.0914   31.1869   -0.6113 C.3       8 UNK         0.0242 
     51 CB         30.6372   30.0710   -1.5657 C.3       8 UNK        -0.2000 
     52 C          32.4705   30.8692   -0.0100 C.2       8 UNK         0.4948 
     53 O          33.4852   31.1533   -0.6478 O.2       8 UNK        -0.5275 
     54 N          32.4872   30.3102    1.2040 N.am      9 UNK        -0.4246 
     55 CA         33.6725   30.0665    2.0152 C.3       9 UNK         0.0261 
     56 CB         34.2635   28.6865    1.6918 C.3       9 UNK        -0.1959 
     57 C          33.2304   30.1402    3.4759 C.2       9 UNK         0.5033 
     58 O          32.1419   29.6540    3.7974 O.2       9 UNK        -0.5390 
     59 N          34.0734   30.7260    4.3343 N.am      10 UNK        -0.4215 
     60 CA         33.8101   30.9915    5.7537 C.3       10 UNK         0.0240 
     61 CB         34.7335   32.1325    6.2224 C.3       10 UNK        -0.1982 
     62 C          33.9158   29.7378    6.6492 C.2       10 UNK         0.4970 
     63 O          34.5800   29.7754    7.6865 O.2       10 UNK        -0.4916 
     64 N          33.2583   28.6508    6.2355 N.am      11 UNK        -0.4279 
     65 CA         33.1949   27.3678    6.9535 C.3       11 UNK         0.1003 
     66 C          32.2040   27.3506    8.1547 C.2       11 UNK         0.5709 
     67 N          31.4016   28.3852    8.3773 N.am      11 UNK        -0.7358 
     68 O          32.1715   26.3812    8.9091 O.2       11 UNK        -0.4999 
     69 C69        32.9169   26.1936    5.9814 C.3       12 UNK        -0.0954 
     70 S70        34.2262   26.0046    4.7259 S.3       12 UNK        -0.2268 
     71 C71        33.7042   24.4619    3.9138 C.3       12 UNK         0.0203 
     72 H72        34.4802   21.5679    0.2737 H         1 UNK         0.0888 
     73 H73        34.5929   23.3204    0.4663 H         1 UNK         0.0888 
     74 H74        33.3917   22.4036    1.3805 H         1 UNK         0.0888 
     75 H75        31.3596   22.9300    0.5659 H         1 UNK         0.3017 
     76 H76        30.6704   22.3422   -2.1205 H         1 UNK         0.0873 
     77 H77        31.5849   24.7433   -2.3575 H         1 UNK         0.0745 
     78 H78        30.0196   24.4043   -2.9964 H         1 UNK         0.0745 
     79 H79        31.0233   27.4236    0.2917 H         1 UNK         0.0705 
     80 H80        32.1278   26.3163   -0.4885 H         1 UNK         0.0705 
     81 H81        33.2848   25.7125    1.5498 H         1 UNK         0.1334 
     82 H82        31.2189   23.5999    4.6459 H         1 UNK         0.1417 
     83 H83        29.0327   25.2223    1.3382 H         1 UNK         0.1562 
     84 H84        28.8109   23.6042    4.7194 H         1 UNK         0.0748 
     85 H85        28.5533   22.7657    3.2080 H         1 UNK         0.0748 
     86 H86        28.2159   26.0098    5.1417 H         1 UNK         0.0940 
     87 H87        26.5752   26.5050    4.8289 H         1 UNK         0.0940 
     88 H88        29.0660   27.2330    3.1992 H         1 UNK         0.0703 
     89 H89        26.3724   27.1769    2.2474 H         1 UNK         0.3081 
     90 H90        25.8405   29.4043    0.4205 H         1 UNK         0.0719 
     91 H91        27.9759   28.3320   -1.4881 H         1 UNK         0.0809 
     92 H92        26.4769   29.1144   -1.9858 H         1 UNK         0.0809 
     93 H93        27.6747   30.0196   -1.0826 H         1 UNK         0.0809 
     94 H94        26.1447   26.7382   -0.7889 H         1 UNK         0.2990 
     95 H95        23.3358   25.4145    0.9786 H         1 UNK         0.0690 
     96 H96        22.7055   24.8517   -1.3534 H         1 UNK         0.0788 
     97 H97        23.8403   26.0486   -1.9750 H         1 UNK         0.0788 
     98 H98        22.4561   26.5585   -1.0241 H         1 UNK         0.0788 
     99 H99        24.8349   23.8399    0.8561 H         1 UNK         0.2993 
    100 H100       26.8802   22.8467    0.5477 H         1 UNK         0.0949 
    101 H101       25.9158   21.9614   -2.2435 H         1 UNK         0.0767 
    102 H102       26.6074   20.8950   -1.0217 H         1 UNK         0.0767 
    103 H103       25.0612   21.6756   -0.7325 H         1 UNK         0.0767 
    104 H104       28.1196   23.8526   -1.8904 H         1 UNK         0.3013 
    105 H105       30.0762   28.7778    4.3277 H         1 UNK         0.3121 
    106 H106       30.5758   30.5212    5.5661 H         1 UNK         0.0774 
    107 H107       29.1745   31.4759    7.2768 H         1 UNK         0.0815 
    108 H108       27.7152   30.8052    6.5767 H         1 UNK         0.0815 
    109 H109       28.9190   29.7388    7.2998 H         1 UNK         0.0815 
    110 H110       28.9756   30.6085    2.7930 H         1 UNK         0.2987 
    111 H111       28.8933   33.6031    2.6301 H         1 UNK         0.0949 
    112 H112       27.2519   33.3050    0.8049 H         1 UNK         0.0806 
    113 H113       27.2659   31.5626    1.0226 H         1 UNK         0.0806 
    114 H114       26.6455   32.6055    2.2972 H         1 UNK         0.0806 
    115 H115       29.4716   30.6218    0.6538 H         1 UNK         0.3010 
    116 H116       31.2053   32.0987   -1.2020 H         1 UNK         0.0829 
    117 H117       29.7846   30.3907   -2.1639 H         1 UNK         0.0813 
    118 H118       31.4310   29.7989   -2.2629 H         1 UNK         0.0813 
    119 H119       30.3494   29.1687   -1.0284 H         1 UNK         0.0813 
    120 H120       31.6138   30.1288    1.6822 H         1 UNK         0.3038 
    121 H121       34.4154   30.8434    1.8218 H         1 UNK         0.0769 
    122 H122       35.1604   28.4940    2.2818 H         1 UNK         0.0811 
    123 H123       34.5371   28.6031    0.6400 H         1 UNK         0.0811 
    124 H124       33.5484   27.8982    1.9191 H         1 UNK         0.0811 
    125 H125       34.9661   31.0450    3.9852 H         1 UNK         0.3204 
    126 H126       32.7839   31.3521    5.8442 H         1 UNK         0.0748 
    127 H127       34.5192   32.4133    7.2546 H         1 UNK         0.0771 
    128 H128       35.7852   31.8470    6.1731 H         1 UNK         0.0771 
    129 H129       34.5991   33.0277    5.6148 H         1 UNK         0.0771 
    130 H130       32.7480   28.7111    5.3599 H         1 UNK         0.2980 
    131 H131       34.1782   27.1921    7.3941 H         1 UNK         0.0545 
    132 H132       30.7741   28.3589    9.1650 H         1 UNK         0.3459 
    133 H133       31.4310   29.1924    7.7784 H         1 UNK         0.3459 
    134 H134       31.9605   26.3411    5.4768 H         1 UNK         0.0616 
    135 H135       32.8411   25.2499    6.5249 H         1 UNK         0.0616 
    136 H136       33.6303   23.6659    4.6563 H         1 UNK         0.0634 
    137 H137       34.4777   24.1546    3.2087 H         1 UNK         0.0634 
@<TRIPOS>BOND
     1    1    2 1    
     2    1   72 1    
     3    1   73 1    
     4    1   74 1    
     5    2    3 2    
     6    2    4 am   BACKBONE|DICT|INTERRES
     7    4    5 1    
     8    4   75 1    
     9    5    6 1    
    10    5   35 1    
    11    5   76 1    
    12    6    7 1    
    13    6   77 1    
    14    6   78 1    
    15    7    8 1    
    16    8    9 1    
    17    8   79 1    
    18    8   80 1    
    19    9   10 ar   
    20    9   14 ar   
    21   10   11 ar   
    22   10   81 1    
    23   11   12 ar   
    24   11   71 1    
    25   12   13 ar   
    26   12   82 1    
    27   13   14 ar   
    28   13   15 1    
    29   14   83 1    
    30   15   16 1    
    31   15   84 1    
    32   15   85 1    
    33   16   17 1    
    34   17   18 1    
    35   17   86 1    
    36   17   87 1    
    37   18   19 1    
    38   18   37 1    
    39   18   88 1    
    40   19   20 am   BACKBONE|DICT|INTERRES
    41   19   89 1    
    42   20   21 2    
    43   20   22 1    
    44   22   23 1    
    45   22   24 1    
    46   22   90 1    
    47   23   91 1    
    48   23   92 1    
    49   23   93 1    
    50   24   25 am   BACKBONE|DICT|INTERRES
    51   24   94 1    
    52   25   26 2    
    53   25   27 1    
    54   27   28 1    
    55   27   29 1    
    56   27   95 1    
    57   28   96 1    
    58   28   97 1    
    59   28   98 1    
    60   29   30 am   BACKBONE|DICT|INTERRES
    61   29   99 1    
    62   30   31 2    
    63   30   32 1    
    64   32   33 1    
    65   32   34 1    
    66   32  100 1    
    67   33  101 1    
    68   33  102 1    
    69   33  103 1    
    70   34   35 am   BACKBONE|DICT|INTERRES
    71   34  104 1    
    72   35   36 2    
    73   37   38 2    
    74   37   39 am   BACKBONE|DICT|INTERRES
    75   39   40 1    
    76   39  105 1    
    77   40   41 1    
    78   40   42 1    
    79   40  106 1    
    80   41  107 1    
    81   41  108 1    
    82   41  109 1    
    83   42   43 2    
    84   42   44 am   BACKBONE|DICT|INTERRES
    85   44   45 1    
    86   44  110 1    
    87   45   46 1    
    88   45   47 1    
    89   45  111 1    
    90   46  112 1    
    91   46  113 1    
    92   46  114 1    
    93   47   48 2    
    94   47   49 am   BACKBONE|DICT|INTERRES
    95   49   50 1    
    96   49  115 1    
    97   50   51 1    
    98   50   52 1    
    99   50  116 1    
   100   51  117 1    
   101   51  118 1    
   102   51  119 1    
   103   52   53 2    
   104   52   54 am   BACKBONE|DICT|INTERRES
   105   54   55 1    
   106   54  120 1    
   107   55   56 1    
   108   55   57 1    
   109   55  121 1    
   110   56  122 1    
   111   56  123 1    
   112   56  124 1    
   113   57   58 2    
   114   57   59 am   BACKBONE|DICT|INTERRES
   115   59   60 1    
   116   59  125 1    
   117   60   61 1    
   118   60   62 1    
   119   60  126 1    
   120   61  127 1    
   121   61  128 1    
   122   61  129 1    
   123   62   63 2    
   124   62   64 am   BACKBONE|DICT|INTERRES
   125   64   65 1    
   126   64  130 1    
   127   65   66 1    
   128   65   69 1    
   129   65  131 1    
   130   66   67 am   BACKBONE|DICT|INTERRES
   131   66   68 2    
   132   67  132 1    
   133   67  133 1    
   134   69   70 1    
   135   69  134 1    
   136   69  135 1    
   137   70   71 1    
   138   71  136 1    
   139   71  137 1    
@<TRIPOS>SUBSTRUCTURE
     1 UNK         1 GROUP             0       ****    0 ROOT    
