@<TRIPOS>MOLECULE
3R136
137   139    1
SMALL
USER_CHARGES


@<TRIPOS>ATOM
      1 CA         27.3870   21.6348    4.3049 C.3       0 UNK        -0.1979 
      2 C          27.0422   21.6081    2.8235 C.2       0 UNK         0.4864 
      3 O          25.9228   21.2397    2.4646 O.2       0 UNK        -0.5359 
      4 N          27.9982   21.9792    1.9613 N.am      1 UNK        -0.4318 
      5 CA         27.8323   22.0526    0.5085 C.3       1 UNK         0.0824 
      6 C6         29.1998   22.1169   -0.2273 C.3       12 UNK        -0.0944 
      7 S7         30.2265   23.5744    0.1796 S.3       12 UNK        -0.2672 
      8 C8         31.4554   22.9007    1.3482 C.3       12 UNK         0.0333 
      9 C9         31.8125   23.9767    2.3596 C.ar      12 UNK        -0.0807 
     10 C10        32.8813   24.8472    2.1322 C.ar      12 UNK        -0.0894 
     11 C11        33.0950   25.9370    2.9816 C.ar      12 UNK        -0.0804 
     12 C12        32.2240   26.1581    4.0528 C.ar      12 UNK        -0.0824 
     13 C13        31.1648   25.2798    4.3048 C.ar      12 UNK        -0.0762 
     14 C14        31.0050   24.1598    3.4832 C.ar      12 UNK        -0.0782 
     15 C15        30.2013   25.5828    5.4525 C.3       12 UNK         0.0230 
     16 S16        28.4703   25.0114    5.2238 S.3       12 UNK        -0.2608 
     17 C17        28.0169   25.4101    3.4940 C.3       12 UNK        -0.0989 
     18 CA         28.3444   26.8563    3.0356 C.3       5 UNK         0.0716 
     19 N          29.0444   26.8916    1.7448 N.am      5 UNK        -0.4135 
     20 C          29.7307   27.9551    1.3009 C.2       4 UNK         0.5031 
     21 O          29.8764   28.9900    1.9518 O.2       4 UNK        -0.5229 
     22 CA         30.3206   27.8877   -0.1203 C.3       4 UNK         0.0329 
     23 CB         31.7442   27.3173   -0.1085 C.3       4 UNK        -0.2001 
     24 N          29.5148   27.1356   -1.0844 N.am      4 UNK        -0.4303 
     25 C          28.2644   27.4439   -1.4493 C.2       3 UNK         0.5044 
     26 O          27.6111   28.3535   -0.9409 O.2       3 UNK        -0.5152 
     27 CA         27.6166   26.5749   -2.5310 C.3       3 UNK         0.0319 
     28 CB         28.6241   25.8666   -3.4629 C.3       3 UNK        -0.2001 
     29 N          26.7840   25.5942   -1.8525 N.am      3 UNK        -0.4354 
     30 C          25.7167   24.9676   -2.3511 C.2       2 UNK         0.4964 
     31 O          25.2775   25.1603   -3.4863 O.2       2 UNK        -0.5047 
     32 CA         25.0511   23.9328   -1.4183 C.3       2 UNK         0.0288 
     33 CB         23.9071   23.1626   -2.1050 C.3       2 UNK        -0.2113 
     34 N          26.0149   22.9665   -0.8743 N.am      2 UNK        -0.4145 
     35 C          26.8889   23.2106    0.1127 C.2       1 UNK         0.5006 
     36 O          26.9918   24.3108    0.6679 O.2       1 UNK        -0.5103 
     37 C          27.0814   27.7376    3.0197 C.2       5 UNK         0.5055 
     38 O          26.8251   28.4438    3.9945 O.2       5 UNK        -0.5220 
     39 N          26.3354   27.7101    1.9045 N.am      6 UNK        -0.4450 
     40 CA         25.1531   28.5466    1.6729 C.3       6 UNK         0.0367 
     41 CB         24.4009   28.0487    0.4276 C.3       6 UNK        -0.1929 
     42 C          25.5080   30.0392    1.5485 C.2       6 UNK         0.5070 
     43 O          24.7694   30.8848    2.0528 O.2       6 UNK        -0.5237 
     44 N          26.6564   30.3300    0.9223 N.am      7 UNK        -0.4739 
     45 CA         27.2669   31.6609    0.8494 C.3       7 UNK         0.0276 
     46 CB         28.3267   31.6556   -0.2645 C.3       7 UNK        -0.1927 
     47 C          27.8946   32.1277    2.1790 C.2       7 UNK         0.5013 
     48 O          28.2028   33.3136    2.3041 O.2       7 UNK        -0.5193 
     49 N          28.0808   31.1976    3.1285 N.am      8 UNK        -0.4253 
     50 CA         28.7086   31.3567    4.4442 C.3       8 UNK         0.0242 
     51 CB         27.8531   32.2623    5.3557 C.3       8 UNK        -0.2000 
     52 C          30.1810   31.8012    4.3512 C.2       8 UNK         0.4948 
     53 O          30.6045   32.6945    5.0885 O.2       8 UNK        -0.5275 
     54 N          30.9361   31.1754    3.4380 N.am      9 UNK        -0.4246 
     55 CA         32.3631   31.4212    3.2372 C.3       9 UNK         0.0261 
     56 CB         32.8021   30.7998    1.9024 C.3       9 UNK        -0.1959 
     57 C          33.1890   30.8498    4.4005 C.2       9 UNK         0.5033 
     58 O          33.0349   29.6747    4.7418 O.2       9 UNK        -0.5390 
     59 N          34.0729   31.6766    4.9693 N.am      10 UNK        -0.4215 
     60 CA         34.9677   31.3136    6.0688 C.3       10 UNK         0.0240 
     61 CB         35.2150   32.5591    6.9419 C.3       10 UNK        -0.1982 
     62 C          36.2705   30.7002    5.5261 C.2       10 UNK         0.4970 
     63 O          37.3375   31.3017    5.6638 O.2       10 UNK        -0.4916 
     64 N          36.1578   29.5255    4.8938 N.am      11 UNK        -0.4279 
     65 CA         37.2930   28.7705    4.3354 C.3       11 UNK         0.1003 
     66 C          38.2113   28.0750    5.3853 C.2       11 UNK         0.5709 
     67 N          37.8331   27.9970    6.6561 N.am      11 UNK        -0.7358 
     68 O          39.2964   27.6121    5.0407 O.2       11 UNK        -0.4999 
     69 C69        36.8498   27.8047    3.2047 C.3       12 UNK        -0.0954 
     70 S70        35.6807   26.5099    3.7447 S.3       12 UNK        -0.2268 
     71 C71        34.2368   26.9040    2.7174 C.3       12 UNK         0.0203 
     72 H72        27.1989   20.6591    4.7520 H         1 UNK         0.0888 
     73 H73        28.4322   21.8885    4.4783 H         1 UNK         0.0888 
     74 H74        26.7689   22.3701    4.8193 H         1 UNK         0.0888 
     75 H75        28.8905   22.2944    2.3053 H         1 UNK         0.3017 
     76 H76        27.3498   21.1217    0.2018 H         1 UNK         0.0873 
     77 H77        29.0402   22.1155   -1.3071 H         1 UNK         0.0745 
     78 H78        29.7708   21.2099   -0.0231 H         1 UNK         0.0745 
     79 H79        31.0604   22.0229    1.8613 H         1 UNK         0.0705 
     80 H80        32.3395   22.5717    0.8001 H         1 UNK         0.0705 
     81 H81        33.5185   24.7026    1.2704 H         1 UNK         0.1334 
     82 H82        32.3704   27.0240    4.6850 H         1 UNK         0.1417 
     83 H83        30.2027   23.4648    3.6761 H         1 UNK         0.1562 
     84 H84        30.1813   26.6561    5.6473 H         1 UNK         0.0748 
     85 H85        30.5946   25.1223    6.3595 H         1 UNK         0.0748 
     86 H86        26.9567   25.1755    3.3732 H         1 UNK         0.0940 
     87 H87        28.5054   24.6887    2.8430 H         1 UNK         0.0940 
     88 H88        29.0186   27.3142    3.7597 H         1 UNK         0.0703 
     89 H89        28.9808   26.0687    1.1620 H         1 UNK         0.3081 
     90 H90        30.3803   28.9157   -0.4828 H         1 UNK         0.0719 
     91 H91        31.7421   26.2486    0.0994 H         1 UNK         0.0809 
     92 H92        32.2393   27.4688   -1.0677 H         1 UNK         0.0809 
     93 H93        32.3582   27.7998    0.6504 H         1 UNK         0.0809 
     94 H94        29.9653   26.3529   -1.5366 H         1 UNK         0.2990 
     95 H95        26.9841   27.2318   -3.1319 H         1 UNK         0.0690 
     96 H96        29.3233   26.5790   -3.9033 H         1 UNK         0.0788 
     97 H97        28.1096   25.3750   -4.2888 H         1 UNK         0.0788 
     98 H98        29.2035   25.1035   -2.9415 H         1 UNK         0.0788 
     99 H99        27.0483   25.3608   -0.8988 H         1 UNK         0.2993 
    100 H100       24.6184   24.4930   -0.5862 H         1 UNK         0.0949 
    101 H101       23.4190   22.4766   -1.4123 H         1 UNK         0.0767 
    102 H102       23.1403   23.8459   -2.4729 H         1 UNK         0.0767 
    103 H103       24.2647   22.5829   -2.9570 H         1 UNK         0.0767 
    104 H104       26.0157   22.0536   -1.3063 H         1 UNK         0.3013 
    105 H105       26.6320   27.1213    1.1400 H         1 UNK         0.3121 
    106 H106       24.4918   28.4361    2.5351 H         1 UNK         0.0774 
    107 H107       23.4955   28.6343    0.2626 H         1 UNK         0.0815 
    108 H108       25.0065   28.1284   -0.4754 H         1 UNK         0.0815 
    109 H109       24.0968   27.0077    0.5372 H         1 UNK         0.0815 
    110 H110       27.1490   29.5757    0.4495 H         1 UNK         0.2987 
    111 H111       26.4896   32.3809    0.5844 H         1 UNK         0.0949 
    112 H112       29.1452   30.9731   -0.0343 H         1 UNK         0.0806 
    113 H113       27.8983   31.3553   -1.2209 H         1 UNK         0.0806 
    114 H114       28.7585   32.6483   -0.3989 H         1 UNK         0.0806 
    115 H115       27.7995   30.2525    2.9032 H         1 UNK         0.3010 
    116 H116       28.7242   30.3621    4.8925 H         1 UNK         0.0829 
    117 H117       27.8263   33.2912    4.9959 H         1 UNK         0.0813 
    118 H118       26.8265   31.9014    5.4194 H         1 UNK         0.0813 
    119 H119       28.2524   32.2832    6.3704 H         1 UNK         0.0813 
    120 H120       30.5235   30.4162    2.8969 H         1 UNK         0.3038 
    121 H121       32.5180   32.5007    3.1793 H         1 UNK         0.0769 
    122 H122       32.6448   29.7222    1.8981 H         1 UNK         0.0811 
    123 H123       33.8616   30.9780    1.7143 H         1 UNK         0.0811 
    124 H124       32.2449   31.2212    1.0654 H         1 UNK         0.0811 
    125 H125       34.1630   32.6162    4.6091 H         1 UNK         0.3204 
    126 H126       34.4883   30.5611    6.6990 H         1 UNK         0.0748 
    127 H127       35.8673   32.3226    7.7838 H         1 UNK         0.0771 
    128 H128       35.6876   33.3647    6.3784 H         1 UNK         0.0771 
    129 H129       34.2821   32.9429    7.3556 H         1 UNK         0.0771 
    130 H130       35.2438   29.0975    4.8149 H         1 UNK         0.2980 
    131 H131       37.9413   29.5060    3.8550 H         1 UNK         0.0545 
    132 H132       38.4402   27.5502    7.3249 H         1 UNK         0.3459 
    133 H133       36.9430   28.3655    6.9484 H         1 UNK         0.3459 
    134 H134       36.4017   28.3827    2.3952 H         1 UNK         0.0616 
    135 H135       37.7174   27.3136    2.7603 H         1 UNK         0.0616 
    136 H136       33.9142   27.9248    2.9215 H         1 UNK         0.0634 
    137 H137       34.5245   26.8733    1.6653 H         1 UNK         0.0634 
@<TRIPOS>BOND
     1    1    2 1    
     2    1   72 1    
     3    1   73 1    
     4    1   74 1    
     5    2    3 2    
     6    2    4 am   BACKBONE|DICT|INTERRES
     7    4    5 1    
     8    4   75 1    
     9    5    6 1    
    10    5   35 1    
    11    5   76 1    
    12    6    7 1    
    13    6   77 1    
    14    6   78 1    
    15    7    8 1    
    16    8    9 1    
    17    8   79 1    
    18    8   80 1    
    19    9   10 ar   
    20    9   14 ar   
    21   10   11 ar   
    22   10   81 1    
    23   11   12 ar   
    24   11   71 1    
    25   12   13 ar   
    26   12   82 1    
    27   13   14 ar   
    28   13   15 1    
    29   14   83 1    
    30   15   16 1    
    31   15   84 1    
    32   15   85 1    
    33   16   17 1    
    34   17   18 1    
    35   17   86 1    
    36   17   87 1    
    37   18   19 1    
    38   18   37 1    
    39   18   88 1    
    40   19   20 am   BACKBONE|DICT|INTERRES
    41   19   89 1    
    42   20   21 2    
    43   20   22 1    
    44   22   23 1    
    45   22   24 1    
    46   22   90 1    
    47   23   91 1    
    48   23   92 1    
    49   23   93 1    
    50   24   25 am   BACKBONE|DICT|INTERRES
    51   24   94 1    
    52   25   26 2    
    53   25   27 1    
    54   27   28 1    
    55   27   29 1    
    56   27   95 1    
    57   28   96 1    
    58   28   97 1    
    59   28   98 1    
    60   29   30 am   BACKBONE|DICT|INTERRES
    61   29   99 1    
    62   30   31 2    
    63   30   32 1    
    64   32   33 1    
    65   32   34 1    
    66   32  100 1    
    67   33  101 1    
    68   33  102 1    
    69   33  103 1    
    70   34   35 am   BACKBONE|DICT|INTERRES
    71   34  104 1    
    72   35   36 2    
    73   37   38 2    
    74   37   39 am   BACKBONE|DICT|INTERRES
    75   39   40 1    
    76   39  105 1    
    77   40   41 1    
    78   40   42 1    
    79   40  106 1    
    80   41  107 1    
    81   41  108 1    
    82   41  109 1    
    83   42   43 2    
    84   42   44 am   BACKBONE|DICT|INTERRES
    85   44   45 1    
    86   44  110 1    
    87   45   46 1    
    88   45   47 1    
    89   45  111 1    
    90   46  112 1    
    91   46  113 1    
    92   46  114 1    
    93   47   48 2    
    94   47   49 am   BACKBONE|DICT|INTERRES
    95   49   50 1    
    96   49  115 1    
    97   50   51 1    
    98   50   52 1    
    99   50  116 1    
   100   51  117 1    
   101   51  118 1    
   102   51  119 1    
   103   52   53 2    
   104   52   54 am   BACKBONE|DICT|INTERRES
   105   54   55 1    
   106   54  120 1    
   107   55   56 1    
   108   55   57 1    
   109   55  121 1    
   110   56  122 1    
   111   56  123 1    
   112   56  124 1    
   113   57   58 2    
   114   57   59 am   BACKBONE|DICT|INTERRES
   115   59   60 1    
   116   59  125 1    
   117   60   61 1    
   118   60   62 1    
   119   60  126 1    
   120   61  127 1    
   121   61  128 1    
   122   61  129 1    
   123   62   63 2    
   124   62   64 am   BACKBONE|DICT|INTERRES
   125   64   65 1    
   126   64  130 1    
   127   65   66 1    
   128   65   69 1    
   129   65  131 1    
   130   66   67 am   BACKBONE|DICT|INTERRES
   131   66   68 2    
   132   67  132 1    
   133   67  133 1    
   134   69   70 1    
   135   69  134 1    
   136   69  135 1    
   137   70   71 1    
   138   71  136 1    
   139   71  137 1    
@<TRIPOS>SUBSTRUCTURE
     1 UNK         1 GROUP             0       ****    0 ROOT    
