@<TRIPOS>MOLECULE
3R136
137   139    1
SMALL
USER_CHARGES


@<TRIPOS>ATOM
      1 CA         28.4342   22.5891   -4.2316 C.3       0 UNK        -0.1979 
      2 C          29.4347   22.2212   -3.1383 C.2       0 UNK         0.4864 
      3 O          29.9996   21.1300   -3.1821 O.2       0 UNK        -0.5359 
      4 N          29.6967   23.0833   -2.1441 N.am      1 UNK        -0.4318 
      5 CA         29.0908   24.4044   -1.9231 C.3       1 UNK         0.0824 
      6 C6         29.9147   25.2621   -0.9315 C.3       12 UNK        -0.0944 
      7 S7         31.6240   25.5977   -1.4957 S.3       12 UNK        -0.2672 
      8 C8         32.6506   24.3154   -0.6964 C.3       12 UNK         0.0333 
      9 C9         32.4629   24.2605    0.8125 C.ar      12 UNK        -0.0807 
     10 C10        33.1688   25.1193    1.6612 C.ar      12 UNK        -0.0894 
     11 C11        32.9608   25.0758    3.0452 C.ar      12 UNK        -0.0804 
     12 C12        32.0149   24.1889    3.5732 C.ar      12 UNK        -0.0824 
     13 C13        31.3029   23.3309    2.7288 C.ar      12 UNK        -0.0762 
     14 C14        31.5642   23.3437    1.3592 C.ar      12 UNK        -0.0782 
     15 C15        30.2171   22.4104    3.2624 C.3       12 UNK         0.0230 
     16 S16        28.5760   22.9217    2.6461 S.3       12 UNK        -0.2608 
     17 C17        28.1783   24.2975    3.7731 C.3       12 UNK        -0.0989 
     18 CA         28.6486   25.6841    3.2505 C.3       5 UNK         0.0716 
     19 N          27.7234   26.2655    2.2555 N.am      5 UNK        -0.4135 
     20 C          27.9438   27.4075    1.5786 C.2       4 UNK         0.5031 
     21 O          28.9699   28.0724    1.7159 O.2       4 UNK        -0.5229 
     22 CA         26.8470   27.9669    0.6507 C.3       4 UNK         0.0329 
     23 CB         27.4190   28.5013   -0.6759 C.3       4 UNK        -0.2001 
     24 N          25.7734   27.0176    0.3686 N.am      4 UNK        -0.4303 
     25 C          24.6415   26.9049    1.0782 C.2       3 UNK         0.5044 
     26 O          24.3722   27.6104    2.0507 O.2       3 UNK        -0.5152 
     27 CA         23.6512   25.8018    0.6537 C.3       3 UNK         0.0319 
     28 CB         22.5447   26.3875   -0.2377 C.3       3 UNK        -0.2001 
     29 N          24.2821   24.6736   -0.0398 N.am      3 UNK        -0.4354 
     30 C          25.2294   23.8861    0.4880 C.2       2 UNK         0.4964 
     31 O          25.6344   24.0055    1.6433 O.2       2 UNK        -0.5047 
     32 CA         25.8642   22.8230   -0.4287 C.3       2 UNK         0.0288 
     33 CB         25.0039   22.4713   -1.6643 C.3       2 UNK        -0.2113 
     34 N          27.2250   23.1863   -0.8487 N.am      2 UNK        -0.4145 
     35 C          27.6160   24.3136   -1.4681 C.2       1 UNK         0.5006 
     36 O          26.8599   25.2530   -1.7189 O.2       1 UNK        -0.5103 
     37 C          28.9778   26.6034    4.4542 C.2       5 UNK         0.5055 
     38 O          29.9290   26.3051    5.1751 O.2       5 UNK        -0.5220 
     39 N          28.2028   27.6730    4.6789 N.am      6 UNK        -0.4450 
     40 CA         28.5077   28.7145    5.6641 C.3       6 UNK         0.0367 
     41 CB         27.2271   29.0412    6.4499 C.3       6 UNK        -0.1929 
     42 C          29.0655   29.9962    5.0162 C.2       6 UNK         0.5070 
     43 O          29.6489   30.8169    5.7257 O.2       6 UNK        -0.5237 
     44 N          28.8498   30.1748    3.7063 N.am      7 UNK        -0.4739 
     45 CA         29.0724   31.4319    2.9907 C.3       7 UNK         0.0276 
     46 CB         27.8666   31.7038    2.0767 C.3       7 UNK        -0.1927 
     47 C          30.3634   31.4388    2.1643 C.2       7 UNK         0.5013 
     48 O          30.9237   32.5180    1.9703 O.2       7 UNK        -0.5193 
     49 N          30.8124   30.2676    1.6890 N.am      8 UNK        -0.4253 
     50 CA         32.0038   30.0700    0.8549 C.3       8 UNK         0.0242 
     51 CB         32.1125   28.5774    0.5040 C.3       8 UNK        -0.2000 
     52 C          33.2837   30.5848    1.5375 C.2       8 UNK         0.4948 
     53 O          33.8307   29.9014    2.4004 O.2       8 UNK        -0.5275 
     54 N          33.6860   31.8198    1.1999 N.am      9 UNK        -0.4246 
     55 CA         34.7285   32.6145    1.8690 C.3       9 UNK         0.0261 
     56 CB         36.1265   32.0094    1.6174 C.3       9 UNK        -0.1959 
     57 C          34.4425   32.8527    3.3708 C.2       9 UNK         0.5033 
     58 O          35.3813   33.0099    4.1538 O.2       9 UNK        -0.5390 
     59 N          33.1501   32.8656    3.7376 N.am      10 UNK        -0.4215 
     60 CA         32.5949   32.9672    5.0914 C.3       10 UNK         0.0240 
     61 CB         32.8038   34.3898    5.6532 C.3       10 UNK        -0.1982 
     62 C          33.0887   31.8604    6.0482 C.2       10 UNK         0.4970 
     63 O          33.3523   32.1459    7.2182 O.2       10 UNK        -0.4916 
     64 N          33.2184   30.6229    5.5447 N.am      11 UNK        -0.4279 
     65 CA         33.6983   29.4629    6.3154 C.3       11 UNK         0.1003 
     66 C          32.7653   28.9553    7.4566 C.2       11 UNK         0.5709 
     67 N          31.5301   29.4254    7.5808 N.am      11 UNK        -0.7358 
     68 O          33.1863   28.1342    8.2684 O.2       11 UNK        -0.4999 
     69 C69        34.2020   28.3189    5.3960 C.3       12 UNK        -0.0954 
     70 S70        32.9061   27.5042    4.4013 S.3       12 UNK        -0.2268 
     71 C71        33.7761   25.9669    3.9718 C.3       12 UNK         0.0203 
     72 H72        28.6586   23.5622   -4.6665 H         1 UNK         0.0888 
     73 H73        28.4692   21.8572   -5.0384 H         1 UNK         0.0888 
     74 H74        27.4171   22.6008   -3.8419 H         1 UNK         0.0888 
     75 H75        30.3916   22.8152   -1.4652 H         1 UNK         0.3017 
     76 H76        29.0898   24.9364   -2.8760 H         1 UNK         0.0873 
     77 H77        29.4496   26.2404   -0.8159 H         1 UNK         0.0745 
     78 H78        29.9011   24.8335    0.0682 H         1 UNK         0.0745 
     79 H79        32.4316   23.3457   -1.1449 H         1 UNK         0.0705 
     80 H80        33.6980   24.5181   -0.9245 H         1 UNK         0.0705 
     81 H81        33.8775   25.8221    1.2447 H         1 UNK         0.1334 
     82 H82        31.8246   24.1817    4.6380 H         1 UNK         0.1417 
     83 H83        31.0150   22.6741    0.7127 H         1 UNK         0.1562 
     84 H84        30.2215   22.3796    4.3529 H         1 UNK         0.0748 
     85 H85        30.4176   21.3919    2.9271 H         1 UNK         0.0748 
     86 H86        28.6198   24.0516    4.7413 H         1 UNK         0.0940 
     87 H87        27.1013   24.3037    3.9492 H         1 UNK         0.0940 
     88 H88        29.6003   25.5544    2.7324 H         1 UNK         0.0703 
     89 H89        26.8741   25.7402    2.0813 H         1 UNK         0.3081 
     90 H90        26.4279   28.8261    1.1781 H         1 UNK         0.0719 
     91 H91        28.2401   29.1999   -0.5091 H         1 UNK         0.0809 
     92 H92        26.6559   29.0376   -1.2400 H         1 UNK         0.0809 
     93 H93        27.7950   27.7036   -1.3136 H         1 UNK         0.0809 
     94 H94        25.9339   26.3773   -0.4051 H         1 UNK         0.2990 
     95 H95        23.1893   25.4128    1.5635 H         1 UNK         0.0690 
     96 H96        21.7870   25.6400   -0.4740 H         1 UNK         0.0788 
     97 H97        22.9444   26.7715   -1.1772 H         1 UNK         0.0788 
     98 H98        22.0369   27.2136    0.2625 H         1 UNK         0.0788 
     99 H99        24.0268   24.5300   -1.0063 H         1 UNK         0.2993 
    100 H100       25.9552   21.9211    0.1790 H         1 UNK         0.0949 
    101 H101       24.9287   23.2996   -2.3699 H         1 UNK         0.0767 
    102 H102       25.4282   21.6235   -2.2026 H         1 UNK         0.0767 
    103 H103       23.9916   22.1868   -1.3732 H         1 UNK         0.0767 
    104 H104       27.9349   22.4961   -0.6477 H         1 UNK         0.3013 
    105 H105       27.3956   27.8185    4.0910 H         1 UNK         0.3121 
    106 H106       29.2544   28.3598    6.3766 H         1 UNK         0.0774 
    107 H107       26.4384   29.4231    5.8004 H         1 UNK         0.0815 
    108 H108       27.4189   29.7998    7.2103 H         1 UNK         0.0815 
    109 H109       26.8427   28.1601    6.9638 H         1 UNK         0.0815 
    110 H110       28.5201   29.3944    3.1527 H         1 UNK         0.2987 
    111 H111       29.1402   32.2562    3.7047 H         1 UNK         0.0949 
    112 H112       27.7571   30.9359    1.3108 H         1 UNK         0.0806 
    113 H113       26.9379   31.7466    2.6461 H         1 UNK         0.0806 
    114 H114       27.9748   32.6606    1.5636 H         1 UNK         0.0806 
    115 H115       30.2610   29.4330    1.8733 H         1 UNK         0.3010 
    116 H116       31.8579   30.6238   -0.0746 H         1 UNK         0.0829 
    117 H117       32.1820   27.9565    1.3982 H         1 UNK         0.0813 
    118 H118       31.2429   28.2426   -0.0615 H         1 UNK         0.0813 
    119 H119       32.9950   28.3762   -0.1042 H         1 UNK         0.0813 
    120 H120       33.1348   32.3206    0.5154 H         1 UNK         0.3038 
    121 H121       34.7070   33.5999    1.4012 H         1 UNK         0.0769 
    122 H122       36.3075   31.8560    0.5537 H         1 UNK         0.0811 
    123 H123       36.9117   32.6703    1.9863 H         1 UNK         0.0811 
    124 H124       36.2482   31.0497    2.1207 H         1 UNK         0.0811 
    125 H125       32.4567   32.7459    3.0008 H         1 UNK         0.3204 
    126 H126       31.5200   32.8117    4.9887 H         1 UNK         0.0748 
    127 H127       32.4145   35.1461    4.9716 H         1 UNK         0.0771 
    128 H128       32.2851   34.5163    6.6043 H         1 UNK         0.0771 
    129 H129       33.8589   34.6049    5.8259 H         1 UNK         0.0771 
    130 H130       33.0238   30.4502    4.5672 H         1 UNK         0.2980 
    131 H131       34.5862   29.8187    6.8418 H         1 UNK         0.0545 
    132 H132       31.1511   30.0888    6.9161 H         1 UNK         0.3459 
    133 H133       30.9593   29.0948    8.3412 H         1 UNK         0.3459 
    134 H134       34.9566   28.7057    4.7093 H         1 UNK         0.0616 
    135 H135       34.7113   27.5620    5.9952 H         1 UNK         0.0616 
    136 H136       34.7299   26.2179    3.5049 H         1 UNK         0.0634 
    137 H137       34.0147   25.4232    4.8871 H         1 UNK         0.0634 
@<TRIPOS>BOND
     1    1    2 1    
     2    1   72 1    
     3    1   73 1    
     4    1   74 1    
     5    2    3 2    
     6    2    4 am   BACKBONE|DICT|INTERRES
     7    4    5 1    
     8    4   75 1    
     9    5    6 1    
    10    5   35 1    
    11    5   76 1    
    12    6    7 1    
    13    6   77 1    
    14    6   78 1    
    15    7    8 1    
    16    8    9 1    
    17    8   79 1    
    18    8   80 1    
    19    9   10 ar   
    20    9   14 ar   
    21   10   11 ar   
    22   10   81 1    
    23   11   12 ar   
    24   11   71 1    
    25   12   13 ar   
    26   12   82 1    
    27   13   14 ar   
    28   13   15 1    
    29   14   83 1    
    30   15   16 1    
    31   15   84 1    
    32   15   85 1    
    33   16   17 1    
    34   17   18 1    
    35   17   86 1    
    36   17   87 1    
    37   18   19 1    
    38   18   37 1    
    39   18   88 1    
    40   19   20 am   BACKBONE|DICT|INTERRES
    41   19   89 1    
    42   20   21 2    
    43   20   22 1    
    44   22   23 1    
    45   22   24 1    
    46   22   90 1    
    47   23   91 1    
    48   23   92 1    
    49   23   93 1    
    50   24   25 am   BACKBONE|DICT|INTERRES
    51   24   94 1    
    52   25   26 2    
    53   25   27 1    
    54   27   28 1    
    55   27   29 1    
    56   27   95 1    
    57   28   96 1    
    58   28   97 1    
    59   28   98 1    
    60   29   30 am   BACKBONE|DICT|INTERRES
    61   29   99 1    
    62   30   31 2    
    63   30   32 1    
    64   32   33 1    
    65   32   34 1    
    66   32  100 1    
    67   33  101 1    
    68   33  102 1    
    69   33  103 1    
    70   34   35 am   BACKBONE|DICT|INTERRES
    71   34  104 1    
    72   35   36 2    
    73   37   38 2    
    74   37   39 am   BACKBONE|DICT|INTERRES
    75   39   40 1    
    76   39  105 1    
    77   40   41 1    
    78   40   42 1    
    79   40  106 1    
    80   41  107 1    
    81   41  108 1    
    82   41  109 1    
    83   42   43 2    
    84   42   44 am   BACKBONE|DICT|INTERRES
    85   44   45 1    
    86   44  110 1    
    87   45   46 1    
    88   45   47 1    
    89   45  111 1    
    90   46  112 1    
    91   46  113 1    
    92   46  114 1    
    93   47   48 2    
    94   47   49 am   BACKBONE|DICT|INTERRES
    95   49   50 1    
    96   49  115 1    
    97   50   51 1    
    98   50   52 1    
    99   50  116 1    
   100   51  117 1    
   101   51  118 1    
   102   51  119 1    
   103   52   53 2    
   104   52   54 am   BACKBONE|DICT|INTERRES
   105   54   55 1    
   106   54  120 1    
   107   55   56 1    
   108   55   57 1    
   109   55  121 1    
   110   56  122 1    
   111   56  123 1    
   112   56  124 1    
   113   57   58 2    
   114   57   59 am   BACKBONE|DICT|INTERRES
   115   59   60 1    
   116   59  125 1    
   117   60   61 1    
   118   60   62 1    
   119   60  126 1    
   120   61  127 1    
   121   61  128 1    
   122   61  129 1    
   123   62   63 2    
   124   62   64 am   BACKBONE|DICT|INTERRES
   125   64   65 1    
   126   64  130 1    
   127   65   66 1    
   128   65   69 1    
   129   65  131 1    
   130   66   67 am   BACKBONE|DICT|INTERRES
   131   66   68 2    
   132   67  132 1    
   133   67  133 1    
   134   69   70 1    
   135   69  134 1    
   136   69  135 1    
   137   70   71 1    
   138   71  136 1    
   139   71  137 1    
@<TRIPOS>SUBSTRUCTURE
     1 UNK         1 GROUP             0       ****    0 ROOT    
