@<TRIPOS>MOLECULE
3R136
137   139    1
SMALL
USER_CHARGES


@<TRIPOS>ATOM
      1 CA         26.9508   23.2037    6.5104 C.3       0 UNK        -0.1979 
      2 C          26.9834   23.2862    4.9909 C.2       0 UNK         0.4864 
      3 O          26.6355   24.3293    4.4358 O.2       0 UNK        -0.5359 
      4 N          27.4103   22.1974    4.3321 N.am      1 UNK        -0.4318 
      5 CA         27.4814   21.9999    2.8763 C.3       1 UNK         0.0824 
      6 C6         28.2390   23.1424    2.1400 C.3       12 UNK        -0.0944 
      7 S7         29.0762   22.5871    0.6166 S.3       12 UNK        -0.2672 
      8 C8         30.8280   22.6597    1.1036 C.3       12 UNK         0.0333 
      9 C9         31.4143   24.0589    0.9611 C.ar      12 UNK        -0.0807 
     10 C10        31.4268   24.9397    2.0473 C.ar      12 UNK        -0.0894 
     11 C11        32.0358   26.1937    1.9397 C.ar      12 UNK        -0.0804 
     12 C12        32.6312   26.5686    0.7315 C.ar      12 UNK        -0.0824 
     13 C13        32.6223   25.6996   -0.3639 C.ar      12 UNK        -0.0762 
     14 C14        32.0022   24.4514   -0.2459 C.ar      12 UNK        -0.0782 
     15 C15        33.3385   26.0763   -1.6543 C.3       12 UNK         0.0230 
     16 S16        32.2191   26.8113   -2.8870 S.3       12 UNK        -0.2608 
     17 C17        31.9823   28.4987   -2.2299 C.3       12 UNK        -0.0989 
     18 CA         30.5034   28.8008   -1.8852 C.3       5 UNK         0.0716 
     19 N          29.9416   27.8151   -0.9528 N.am      5 UNK        -0.4135 
     20 C          28.6349   27.6211   -0.7421 C.2       4 UNK         0.5031 
     21 O          27.7437   28.3040   -1.2535 O.2       4 UNK        -0.5229 
     22 CA         28.2699   26.4898    0.2324 C.3       4 UNK         0.0329 
     23 CB         28.1544   27.0352    1.6654 C.3       4 UNK        -0.2001 
     24 N          27.0180   25.8247   -0.1384 N.am      4 UNK        -0.4303 
     25 C          26.8465   25.1015   -1.2528 C.2       3 UNK         0.5044 
     26 O          27.7351   24.8810   -2.0779 O.2       3 UNK        -0.5152 
     27 CA         25.4739   24.4458   -1.4323 C.3       3 UNK         0.0319 
     28 CB         25.0559   24.3534   -2.9144 C.3       3 UNK        -0.2001 
     29 N          25.5681   23.1180   -0.8383 N.am      3 UNK        -0.4354 
     30 C          24.5454   22.3311   -0.4820 C.2       2 UNK         0.4964 
     31 O          23.3603   22.6193   -0.6507 O.2       2 UNK        -0.5047 
     32 CA         24.9138   20.9997    0.1976 C.3       2 UNK         0.0288 
     33 CB         25.1632   19.9051   -0.8530 C.3       2 UNK        -0.2113 
     34 N          26.0976   21.1374    1.0512 N.am      2 UNK        -0.4145 
     35 C          26.0926   21.7371    2.2496 C.2       1 UNK         0.5006 
     36 O          25.0581   22.0826    2.8268 O.2       1 UNK        -0.5103 
     37 C          30.3484   30.2623   -1.4072 C.2       5 UNK         0.5055 
     38 O          30.5006   31.1761   -2.2199 O.2       5 UNK        -0.5220 
     39 N          30.0575   30.4662   -0.1178 N.am      6 UNK        -0.4450 
     40 CA         29.7830   31.7551    0.5053 C.3       6 UNK         0.0367 
     41 CB         31.0791   32.3179    1.1158 C.3       6 UNK        -0.1929 
     42 C          28.7128   31.5414    1.5812 C.2       6 UNK         0.5070 
     43 O          28.5655   30.4224    2.0792 O.2       6 UNK        -0.5237 
     44 N          27.9929   32.6166    1.9272 N.am      7 UNK        -0.4739 
     45 CA         26.9841   32.6182    2.9936 C.3       7 UNK         0.0276 
     46 CB         26.0716   33.8451    2.8325 C.3       7 UNK        -0.1927 
     47 C          27.6084   32.5891    4.4005 C.2       7 UNK         0.5013 
     48 O          27.0063   32.0326    5.3201 O.2       7 UNK        -0.5193 
     49 N          28.8011   33.1822    4.5359 N.am      8 UNK        -0.4253 
     50 CA         29.6422   33.1092    5.7286 C.3       8 UNK         0.0242 
     51 CB         30.4988   34.3842    5.8107 C.3       8 UNK        -0.2000 
     52 C          30.5441   31.8701    5.6490 C.2       8 UNK         0.4948 
     53 O          30.8721   31.4192    4.5481 O.2       8 UNK        -0.5275 
     54 N          30.9917   31.3749    6.8094 N.am      9 UNK        -0.4246 
     55 CA         31.8841   30.2173    6.9532 C.3       9 UNK         0.0261 
     56 CB         31.7756   29.6785    8.3920 C.3       9 UNK        -0.1959 
     57 C          33.3432   30.5154    6.5420 C.2       9 UNK         0.5033 
     58 O          34.2727   30.2245    7.2974 O.2       9 UNK        -0.5390 
     59 N          33.5252   31.0721    5.3372 N.am      10 UNK        -0.4215 
     60 CA         34.8136   31.4191    4.7256 C.3       10 UNK         0.0240 
     61 CB         34.5551   32.1765    3.4128 C.3       10 UNK        -0.1982 
     62 C          35.7254   30.2033    4.4778 C.2       10 UNK         0.4970 
     63 O          36.9465   30.3568    4.4393 O.2       10 UNK        -0.4916 
     64 N          35.1121   29.0233    4.3382 N.am      11 UNK        -0.4279 
     65 CA         35.7664   27.7116    4.2978 C.3       11 UNK         0.1003 
     66 C          36.3494   27.2263    5.6599 C.2       11 UNK         0.5709 
     67 N          36.0795   27.8811    6.7846 N.am      11 UNK        -0.7358 
     68 O          37.0798   26.2385    5.6927 O.2       11 UNK        -0.4999 
     69 C69        34.8393   26.6533    3.6435 C.3       12 UNK        -0.0954 
     70 S70        33.1971   26.5138    4.4418 S.3       12 UNK        -0.2268 
     71 C71        32.0770   27.1284    3.1413 C.3       12 UNK         0.0203 
     72 H72        27.2991   22.2378    6.8758 H         1 UNK         0.0888 
     73 H73        27.5851   23.9778    6.9415 H         1 UNK         0.0888 
     74 H74        25.9339   23.3558    6.8714 H         1 UNK         0.0888 
     75 H75        27.6568   21.3809    4.8743 H         1 UNK         0.3017 
     76 H76        28.0561   21.0792    2.7603 H         1 UNK         0.0873 
     77 H77        27.5622   23.9595    1.8894 H         1 UNK         0.0745 
     78 H78        28.9835   23.5808    2.8031 H         1 UNK         0.0745 
     79 H79        31.3885   21.9652    0.4759 H         1 UNK         0.0705 
     80 H80        30.9450   22.2963    2.1258 H         1 UNK         0.0705 
     81 H81        30.9937   24.6417    2.9917 H         1 UNK         0.1334 
     82 H82        33.1284   27.5259    0.6552 H         1 UNK         0.1417 
     83 H83        32.0040   23.7709   -1.0869 H         1 UNK         0.1562 
     84 H84        33.7925   25.1845   -2.0894 H         1 UNK         0.0748 
     85 H85        34.1647   26.7599   -1.4520 H         1 UNK         0.0748 
     86 H86        32.3398   29.1946   -2.9919 H         1 UNK         0.0940 
     87 H87        32.6233   28.6593   -1.3622 H         1 UNK         0.0940 
     88 H88        29.9308   28.7235   -2.8123 H         1 UNK         0.0703 
     89 H89        30.6066   27.1916   -0.5159 H         1 UNK         0.3081 
     90 H90        29.0632   25.7395    0.2089 H         1 UNK         0.0719 
     91 H91        27.3627   27.7810    1.7499 H         1 UNK         0.0809 
     92 H92        27.9482   26.2434    2.3852 H         1 UNK         0.0809 
     93 H93        29.0825   27.5158    1.9768 H         1 UNK         0.0809 
     94 H94        26.2330   25.9621    0.4811 H         1 UNK         0.2990 
     95 H95        24.7283   25.0326   -0.8914 H         1 UNK         0.0690 
     96 H96        24.0478   23.9530   -3.0210 H         1 UNK         0.0788 
     97 H97        25.7303   23.7145   -3.4860 H         1 UNK         0.0788 
     98 H98        25.0631   25.3387   -3.3819 H         1 UNK         0.0788 
     99 H99        26.5113   22.8029   -0.6530 H         1 UNK         0.2993 
    100 H100       24.0664   20.6943    0.8159 H         1 UNK         0.0949 
    101 H101       24.2882   19.7720   -1.4910 H         1 UNK         0.0767 
    102 H102       26.0058   20.1483   -1.5018 H         1 UNK         0.0767 
    103 H103       25.3684   18.9435   -0.3819 H         1 UNK         0.0767 
    104 H104       26.9856   20.8714    0.6480 H         1 UNK         0.3013 
    105 H105       29.8632   29.6736    0.4811 H         1 UNK         0.3121 
    106 H106       29.3910   32.4524   -0.2385 H         1 UNK         0.0774 
    107 H107       30.9040   33.2805    1.5971 H         1 UNK         0.0815 
    108 H108       31.4903   31.6463    1.8705 H         1 UNK         0.0815 
    109 H109       31.8428   32.4711    0.3532 H         1 UNK         0.0815 
    110 H110       28.1621   33.4947    1.4564 H         1 UNK         0.2987 
    111 H111       26.3699   31.7203    2.8898 H         1 UNK         0.0949 
    112 H112       26.6285   34.7793    2.9166 H         1 UNK         0.0806 
    113 H113       25.5660   33.8400    1.8666 H         1 UNK         0.0806 
    114 H114       25.2972   33.8576    3.6011 H         1 UNK         0.0806 
    115 H115       29.2364   33.5529    3.7048 H         1 UNK         0.3010 
    116 H116       29.0154   33.0415    6.6209 H         1 UNK         0.0829 
    117 H117       29.8755   35.2777    5.8549 H         1 UNK         0.0813 
    118 H118       31.1224   34.3822    6.7058 H         1 UNK         0.0813 
    119 H119       31.1640   34.4819    4.9511 H         1 UNK         0.0813 
    120 H120       30.7180   31.8338    7.6669 H         1 UNK         0.3038 
    121 H121       31.5283   29.4312    6.2832 H         1 UNK         0.0769 
    122 H122       32.3753   28.7758    8.5183 H         1 UNK         0.0811 
    123 H123       30.7475   29.4166    8.6426 H         1 UNK         0.0811 
    124 H124       32.1258   30.4078    9.1235 H         1 UNK         0.0811 
    125 H125       32.6827   31.2676    4.7977 H         1 UNK         0.3204 
    126 H126       35.3375   32.0855    5.4137 H         1 UNK         0.0748 
    127 H127       35.4928   32.4831    2.9470 H         1 UNK         0.0771 
    128 H128       34.0177   31.5604    2.6906 H         1 UNK         0.0771 
    129 H129       33.9689   33.0798    3.5841 H         1 UNK         0.0771 
    130 H130       34.1062   28.9991    4.4000 H         1 UNK         0.2980 
    131 H131       36.6336   27.8145    3.6429 H         1 UNK         0.0545 
    132 H132       36.4760   27.5479    7.6484 H         1 UNK         0.3459 
    133 H133       35.4805   28.6994    6.7934 H         1 UNK         0.3459 
    134 H134       34.7098   26.9034    2.5910 H         1 UNK         0.0616 
    135 H135       35.3087   25.6679    3.6467 H         1 UNK         0.0616 
    136 H136       31.0735   27.2204    3.5589 H         1 UNK         0.0634 
    137 H137       32.3794   28.1346    2.8469 H         1 UNK         0.0634 
@<TRIPOS>BOND
     1    1    2 1    
     2    1   72 1    
     3    1   73 1    
     4    1   74 1    
     5    2    3 2    
     6    2    4 am   BACKBONE|DICT|INTERRES
     7    4    5 1    
     8    4   75 1    
     9    5    6 1    
    10    5   35 1    
    11    5   76 1    
    12    6    7 1    
    13    6   77 1    
    14    6   78 1    
    15    7    8 1    
    16    8    9 1    
    17    8   79 1    
    18    8   80 1    
    19    9   10 ar   
    20    9   14 ar   
    21   10   11 ar   
    22   10   81 1    
    23   11   12 ar   
    24   11   71 1    
    25   12   13 ar   
    26   12   82 1    
    27   13   14 ar   
    28   13   15 1    
    29   14   83 1    
    30   15   16 1    
    31   15   84 1    
    32   15   85 1    
    33   16   17 1    
    34   17   18 1    
    35   17   86 1    
    36   17   87 1    
    37   18   19 1    
    38   18   37 1    
    39   18   88 1    
    40   19   20 am   BACKBONE|DICT|INTERRES
    41   19   89 1    
    42   20   21 2    
    43   20   22 1    
    44   22   23 1    
    45   22   24 1    
    46   22   90 1    
    47   23   91 1    
    48   23   92 1    
    49   23   93 1    
    50   24   25 am   BACKBONE|DICT|INTERRES
    51   24   94 1    
    52   25   26 2    
    53   25   27 1    
    54   27   28 1    
    55   27   29 1    
    56   27   95 1    
    57   28   96 1    
    58   28   97 1    
    59   28   98 1    
    60   29   30 am   BACKBONE|DICT|INTERRES
    61   29   99 1    
    62   30   31 2    
    63   30   32 1    
    64   32   33 1    
    65   32   34 1    
    66   32  100 1    
    67   33  101 1    
    68   33  102 1    
    69   33  103 1    
    70   34   35 am   BACKBONE|DICT|INTERRES
    71   34  104 1    
    72   35   36 2    
    73   37   38 2    
    74   37   39 am   BACKBONE|DICT|INTERRES
    75   39   40 1    
    76   39  105 1    
    77   40   41 1    
    78   40   42 1    
    79   40  106 1    
    80   41  107 1    
    81   41  108 1    
    82   41  109 1    
    83   42   43 2    
    84   42   44 am   BACKBONE|DICT|INTERRES
    85   44   45 1    
    86   44  110 1    
    87   45   46 1    
    88   45   47 1    
    89   45  111 1    
    90   46  112 1    
    91   46  113 1    
    92   46  114 1    
    93   47   48 2    
    94   47   49 am   BACKBONE|DICT|INTERRES
    95   49   50 1    
    96   49  115 1    
    97   50   51 1    
    98   50   52 1    
    99   50  116 1    
   100   51  117 1    
   101   51  118 1    
   102   51  119 1    
   103   52   53 2    
   104   52   54 am   BACKBONE|DICT|INTERRES
   105   54   55 1    
   106   54  120 1    
   107   55   56 1    
   108   55   57 1    
   109   55  121 1    
   110   56  122 1    
   111   56  123 1    
   112   56  124 1    
   113   57   58 2    
   114   57   59 am   BACKBONE|DICT|INTERRES
   115   59   60 1    
   116   59  125 1    
   117   60   61 1    
   118   60   62 1    
   119   60  126 1    
   120   61  127 1    
   121   61  128 1    
   122   61  129 1    
   123   62   63 2    
   124   62   64 am   BACKBONE|DICT|INTERRES
   125   64   65 1    
   126   64  130 1    
   127   65   66 1    
   128   65   69 1    
   129   65  131 1    
   130   66   67 am   BACKBONE|DICT|INTERRES
   131   66   68 2    
   132   67  132 1    
   133   67  133 1    
   134   69   70 1    
   135   69  134 1    
   136   69  135 1    
   137   70   71 1    
   138   71  136 1    
   139   71  137 1    
@<TRIPOS>SUBSTRUCTURE
     1 UNK         1 GROUP             0       ****    0 ROOT    
