@<TRIPOS>MOLECULE
3R136
137   139    1
SMALL
USER_CHARGES


@<TRIPOS>ATOM
      1 CA         27.2903   24.9265   -3.1886 C.3       0 UNK        -0.1979 
      2 C          28.4775   24.6225   -2.2876 C.2       0 UNK         0.4864 
      3 O          29.5617   25.1648   -2.5027 O.2       0 UNK        -0.5359 
      4 N          28.2826   23.7619   -1.2832 N.am      1 UNK        -0.4318 
      5 CA         29.2926   23.3630   -0.3082 C.3       1 UNK         0.0824 
      6 C6         30.1427   22.1751   -0.8339 C.3       12 UNK        -0.0944 
      7 S7         31.4947   21.6178    0.2620 S.3       12 UNK        -0.2672 
      8 C8         32.8703   22.7124   -0.2142 C.3       12 UNK         0.0333 
      9 C9         32.7772   24.0545    0.4955 C.ar      12 UNK        -0.0807 
     10 C10        33.1718   24.1666    1.8315 C.ar      12 UNK        -0.0894 
     11 C11        33.0727   25.3896    2.4995 C.ar      12 UNK        -0.0804 
     12 C12        32.5675   26.5041    1.8234 C.ar      12 UNK        -0.0824 
     13 C13        32.1450   26.4001    0.4928 C.ar      12 UNK        -0.0762 
     14 C14        32.2874   25.1795   -0.1735 C.ar      12 UNK        -0.0782 
     15 C15        31.5316   27.5873   -0.2461 C.3       12 UNK         0.0230 
     16 S16        30.4097   28.6068    0.7719 S.3       12 UNK        -0.2608 
     17 C17        29.1026   27.4274    1.2626 C.3       12 UNK        -0.0989 
     18 CA         27.7965   27.5638    0.4414 C.3       5 UNK         0.0716 
     19 N          26.8356   26.5101    0.7873 N.am      5 UNK        -0.4135 
     20 C          25.7270   26.2406    0.0778 C.2       4 UNK         0.5031 
     21 O          25.4747   26.7802   -1.0004 O.2       4 UNK        -0.5229 
     22 CA         24.7239   25.2060    0.6260 C.3       4 UNK         0.0329 
     23 CB         24.5088   24.0510   -0.3679 C.3       4 UNK        -0.2001 
     24 N          25.1071   24.6570    1.9281 N.am      4 UNK        -0.4303 
     25 C          24.7461   25.1838    3.1082 C.2       3 UNK         0.5044 
     26 O          24.0061   26.1618    3.2188 O.2       3 UNK        -0.5152 
     27 CA         25.3001   24.5257    4.3895 C.3       3 UNK         0.0319 
     28 CB         24.2284   23.6372    5.0419 C.3       3 UNK        -0.2001 
     29 N          26.5209   23.7360    4.1959 N.am      3 UNK        -0.4354 
     30 C          27.6840   24.2167    3.7375 C.2       2 UNK         0.4964 
     31 O          27.8525   25.3949    3.4228 O.2       2 UNK        -0.5047 
     32 CA         28.8369   23.2180    3.5207 C.3       2 UNK         0.0288 
     33 CB         28.5090   21.7598    3.9168 C.3       2 UNK        -0.2113 
     34 N          29.3146   23.2805    2.1359 N.am      2 UNK        -0.4145 
     35 C          28.5816   23.0969    1.0269 C.2       1 UNK         0.5006 
     36 O          27.3889   22.7740    1.0285 O.2       1 UNK        -0.5103 
     37 C          27.1359   28.9491    0.6213 C.2       5 UNK         0.5055 
     38 O          26.5312   29.2013    1.6667 O.2       5 UNK        -0.5220 
     39 N          27.2548   29.8102   -0.3991 N.am      6 UNK        -0.4450 
     40 CA         26.6934   31.1633   -0.4040 C.3       6 UNK         0.0367 
     41 CB         26.6574   31.7063   -1.8424 C.3       6 UNK        -0.1929 
     42 C          27.4593   32.1191    0.5248 C.2       6 UNK         0.5070 
     43 O          26.8349   32.8180    1.3236 O.2       6 UNK        -0.5237 
     44 N          28.7920   32.1227    0.4088 N.am      7 UNK        -0.4739 
     45 CA         29.7215   32.9157    1.2089 C.3       7 UNK         0.0276 
     46 CB         29.6205   34.4132    0.8540 C.3       7 UNK        -0.1927 
     47 C          31.1404   32.4015    0.9470 C.2       7 UNK         0.5013 
     48 O          31.4590   32.0648   -0.1965 O.2       7 UNK        -0.5193 
     49 N          31.9636   32.3808    1.9981 N.am      8 UNK        -0.4253 
     50 CA         33.3638   31.9649    2.0142 C.3       8 UNK         0.0242 
     51 CB         33.4938   30.4572    1.7044 C.3       8 UNK        -0.2000 
     52 C          33.9392   32.3074    3.3966 C.2       8 UNK         0.4948 
     53 O          33.2001   32.7644    4.2738 O.2       8 UNK        -0.5275 
     54 N          35.2443   32.0659    3.5778 N.am      9 UNK        -0.4246 
     55 CA         35.9695   32.2666    4.8399 C.3       9 UNK         0.0261 
     56 CB         37.4798   32.2745    4.5470 C.3       9 UNK        -0.1959 
     57 C          35.6375   31.2303    5.9358 C.2       9 UNK         0.5033 
     58 O          36.0509   31.4163    7.0816 O.2       9 UNK        -0.5390 
     59 N          34.9159   30.1645    5.5759 N.am      10 UNK        -0.4215 
     60 CA         34.4347   29.0993    6.4483 C.3       10 UNK         0.0240 
     61 CB         35.4673   27.9567    6.4774 C.3       10 UNK        -0.1982 
     62 C          33.0754   28.6240    5.9171 C.2       10 UNK         0.4970 
     63 O          32.6797   29.0238    4.8199 O.2       10 UNK        -0.4916 
     64 N          32.3982   27.7709    6.6949 N.am      11 UNK        -0.4279 
     65 CA         31.0752   27.1862    6.3953 C.3       11 UNK         0.1003 
     66 C          29.8852   28.1942    6.4582 C.2       11 UNK         0.5709 
     67 N          30.0685   29.4125    6.9541 N.am      11 UNK        -0.7358 
     68 O          28.7614   27.8545    6.0977 O.2       11 UNK        -0.4999 
     69 C69        31.0512   26.3224    5.0978 C.3       12 UNK        -0.0954 
     70 S70        32.2522   24.9467    5.1214 S.3       12 UNK        -0.2268 
     71 C71        33.5271   25.5062    3.9462 C.3       12 UNK         0.0203 
     72 H72        27.0744   25.9945   -3.1749 H         1 UNK         0.0888 
     73 H73        27.5141   24.6367   -4.2148 H         1 UNK         0.0888 
     74 H74        26.3916   24.3967   -2.8740 H         1 UNK         0.0888 
     75 H75        27.3701   23.3619   -1.1069 H         1 UNK         0.3017 
     76 H76        29.9328   24.2234   -0.1357 H         1 UNK         0.0873 
     77 H77        29.4966   21.3155   -1.0213 H         1 UNK         0.0745 
     78 H78        30.5739   22.4317   -1.8027 H         1 UNK         0.0745 
     79 H79        32.8931   22.8396   -1.2977 H         1 UNK         0.0705 
     80 H80        33.8109   22.2288    0.0538 H         1 UNK         0.0705 
     81 H81        33.5526   23.2991    2.3537 H         1 UNK         0.1334 
     82 H82        32.4878   27.4502    2.3407 H         1 UNK         0.1417 
     83 H83        31.9767   25.0932   -1.2068 H         1 UNK         0.1562 
     84 H84        30.9770   27.2467   -1.1221 H         1 UNK         0.0748 
     85 H85        32.3380   28.2203   -0.6176 H         1 UNK         0.0748 
     86 H86        28.9007   27.5810    2.3247 H         1 UNK         0.0940 
     87 H87        29.4867   26.4101    1.1830 H         1 UNK         0.0940 
     88 H88        28.0530   27.4319   -0.6122 H         1 UNK         0.0703 
     89 H89        26.9654   26.0709    1.6924 H         1 UNK         0.3081 
     90 H90        23.7688   25.7265    0.7238 H         1 UNK         0.0719 
     91 H91        25.4196   23.4800   -0.5374 H         1 UNK         0.0809 
     92 H92        23.7457   23.3602   -0.0090 H         1 UNK         0.0809 
     93 H93        24.1723   24.4237   -1.3364 H         1 UNK         0.0809 
     94 H94        25.7397   23.8642    1.9143 H         1 UNK         0.2990 
     95 H95        25.5429   25.3336    5.0831 H         1 UNK         0.0690 
     96 H96        23.9626   22.7925    4.4050 H         1 UNK         0.0788 
     97 H97        23.3146   24.2023    5.2317 H         1 UNK         0.0788 
     98 H98        24.5671   23.2437    6.0006 H         1 UNK         0.0788 
     99 H99        26.4594   22.7482    4.3973 H         1 UNK         0.2993 
    100 H100       29.6590   23.5576    4.1517 H         1 UNK         0.0949 
    101 H101       27.6871   21.3444    3.3321 H         1 UNK         0.0767 
    102 H102       29.3745   21.1147    3.7638 H         1 UNK         0.0767 
    103 H103       28.2430   21.6856    4.9721 H         1 UNK         0.0767 
    104 H104       30.2834   23.5484    2.0251 H         1 UNK         0.3013 
    105 H105       27.7687   29.5261   -1.2206 H         1 UNK         0.3121 
    106 H106       25.6639   31.1049   -0.0431 H         1 UNK         0.0774 
    107 H107       26.2318   32.7104   -1.8677 H         1 UNK         0.0815 
    108 H108       27.6537   31.7645   -2.2824 H         1 UNK         0.0815 
    109 H109       26.0414   31.0792   -2.4872 H         1 UNK         0.0815 
    110 H110       29.2400   31.5054   -0.2573 H         1 UNK         0.2987 
    111 H111       29.4785   32.7724    2.2642 H         1 UNK         0.0949 
    112 H112       29.8054   34.5866   -0.2069 H         1 UNK         0.0806 
    113 H113       28.6386   34.8209    1.0933 H         1 UNK         0.0806 
    114 H114       30.3530   34.9973    1.4127 H         1 UNK         0.0806 
    115 H115       31.6438   32.7070    2.9036 H         1 UNK         0.3010 
    116 H116       33.9101   32.5434    1.2666 H         1 UNK         0.0829 
    117 H117       34.5196   30.1027    1.8061 H         1 UNK         0.0813 
    118 H118       32.8706   29.8602    2.3691 H         1 UNK         0.0813 
    119 H119       33.1880   30.2338    0.6829 H         1 UNK         0.0813 
    120 H120       35.7826   31.6991    2.8053 H         1 UNK         0.3038 
    121 H121       35.6953   33.2469    5.2357 H         1 UNK         0.0769 
    122 H122       38.0538   32.4663    5.4548 H         1 UNK         0.0811 
    123 H123       37.7426   33.0540    3.8316 H         1 UNK         0.0811 
    124 H124       37.8182   31.3187    4.1448 H         1 UNK         0.0811 
    125 H125       34.5285   30.1314    4.6415 H         1 UNK         0.3204 
    126 H126       34.2848   29.4886    7.4576 H         1 UNK         0.0748 
    127 H127       35.1345   27.1327    7.1096 H         1 UNK         0.0771 
    128 H128       35.6496   27.5527    5.4810 H         1 UNK         0.0771 
    129 H129       36.4224   28.3005    6.8750 H         1 UNK         0.0771 
    130 H130       32.7965   27.5004    7.5823 H         1 UNK         0.2980 
    131 H131       30.8820   26.5056    7.2251 H         1 UNK         0.0545 
    132 H132       29.2860   30.0452    7.0035 H         1 UNK         0.3459 
    133 H133       30.9782   29.7076    7.2677 H         1 UNK         0.3459 
    134 H134       30.0680   25.8693    4.9708 H         1 UNK         0.0616 
    135 H135       31.1989   26.9431    4.2154 H         1 UNK         0.0616 
    136 H136       34.4230   24.9017    4.0940 H         1 UNK         0.0634 
    137 H137       33.8180   26.5311    4.1698 H         1 UNK         0.0634 
@<TRIPOS>BOND
     1    1    2 1    
     2    1   72 1    
     3    1   73 1    
     4    1   74 1    
     5    2    3 2    
     6    2    4 am   BACKBONE|DICT|INTERRES
     7    4    5 1    
     8    4   75 1    
     9    5    6 1    
    10    5   35 1    
    11    5   76 1    
    12    6    7 1    
    13    6   77 1    
    14    6   78 1    
    15    7    8 1    
    16    8    9 1    
    17    8   79 1    
    18    8   80 1    
    19    9   10 ar   
    20    9   14 ar   
    21   10   11 ar   
    22   10   81 1    
    23   11   12 ar   
    24   11   71 1    
    25   12   13 ar   
    26   12   82 1    
    27   13   14 ar   
    28   13   15 1    
    29   14   83 1    
    30   15   16 1    
    31   15   84 1    
    32   15   85 1    
    33   16   17 1    
    34   17   18 1    
    35   17   86 1    
    36   17   87 1    
    37   18   19 1    
    38   18   37 1    
    39   18   88 1    
    40   19   20 am   BACKBONE|DICT|INTERRES
    41   19   89 1    
    42   20   21 2    
    43   20   22 1    
    44   22   23 1    
    45   22   24 1    
    46   22   90 1    
    47   23   91 1    
    48   23   92 1    
    49   23   93 1    
    50   24   25 am   BACKBONE|DICT|INTERRES
    51   24   94 1    
    52   25   26 2    
    53   25   27 1    
    54   27   28 1    
    55   27   29 1    
    56   27   95 1    
    57   28   96 1    
    58   28   97 1    
    59   28   98 1    
    60   29   30 am   BACKBONE|DICT|INTERRES
    61   29   99 1    
    62   30   31 2    
    63   30   32 1    
    64   32   33 1    
    65   32   34 1    
    66   32  100 1    
    67   33  101 1    
    68   33  102 1    
    69   33  103 1    
    70   34   35 am   BACKBONE|DICT|INTERRES
    71   34  104 1    
    72   35   36 2    
    73   37   38 2    
    74   37   39 am   BACKBONE|DICT|INTERRES
    75   39   40 1    
    76   39  105 1    
    77   40   41 1    
    78   40   42 1    
    79   40  106 1    
    80   41  107 1    
    81   41  108 1    
    82   41  109 1    
    83   42   43 2    
    84   42   44 am   BACKBONE|DICT|INTERRES
    85   44   45 1    
    86   44  110 1    
    87   45   46 1    
    88   45   47 1    
    89   45  111 1    
    90   46  112 1    
    91   46  113 1    
    92   46  114 1    
    93   47   48 2    
    94   47   49 am   BACKBONE|DICT|INTERRES
    95   49   50 1    
    96   49  115 1    
    97   50   51 1    
    98   50   52 1    
    99   50  116 1    
   100   51  117 1    
   101   51  118 1    
   102   51  119 1    
   103   52   53 2    
   104   52   54 am   BACKBONE|DICT|INTERRES
   105   54   55 1    
   106   54  120 1    
   107   55   56 1    
   108   55   57 1    
   109   55  121 1    
   110   56  122 1    
   111   56  123 1    
   112   56  124 1    
   113   57   58 2    
   114   57   59 am   BACKBONE|DICT|INTERRES
   115   59   60 1    
   116   59  125 1    
   117   60   61 1    
   118   60   62 1    
   119   60  126 1    
   120   61  127 1    
   121   61  128 1    
   122   61  129 1    
   123   62   63 2    
   124   62   64 am   BACKBONE|DICT|INTERRES
   125   64   65 1    
   126   64  130 1    
   127   65   66 1    
   128   65   69 1    
   129   65  131 1    
   130   66   67 am   BACKBONE|DICT|INTERRES
   131   66   68 2    
   132   67  132 1    
   133   67  133 1    
   134   69   70 1    
   135   69  134 1    
   136   69  135 1    
   137   70   71 1    
   138   71  136 1    
   139   71  137 1    
@<TRIPOS>SUBSTRUCTURE
     1 UNK         1 GROUP             0       ****    0 ROOT    
