@<TRIPOS>MOLECULE
3R136
137   139    1
SMALL
USER_CHARGES


@<TRIPOS>ATOM
      1 CA         27.0185   23.1691    1.6206 C.3       0 UNK        -0.1979 
      2 C          27.9610   22.4965    0.6365 C.2       0 UNK         0.4864 
      3 O          28.3168   21.3311    0.8185 O.2       0 UNK        -0.5359 
      4 N          28.3668   23.2335   -0.3990 N.am      1 UNK        -0.4318 
      5 CA         29.2935   22.7954   -1.4401 C.3       1 UNK         0.0824 
      6 C6         30.7735   22.7166   -0.9633 C.3       12 UNK        -0.0944 
      7 S7         31.3936   24.2196   -0.1165 S.3       12 UNK        -0.2672 
      8 C8         32.1590   23.5318    1.3886 C.3       12 UNK         0.0333 
      9 C9         31.5396   24.1079    2.6529 C.ar      12 UNK        -0.0807 
     10 C10        32.0532   25.2858    3.2012 C.ar      12 UNK        -0.0894 
     11 C11        31.5286   25.8006    4.3882 C.ar      12 UNK        -0.0804 
     12 C12        30.4874   25.1280    5.0290 C.ar      12 UNK        -0.0824 
     13 C13        29.9487   23.9530    4.4888 C.ar      12 UNK        -0.0762 
     14 C14        30.4851   23.4498    3.2967 C.ar      12 UNK        -0.0782 
     15 C15        28.8350   23.1791    5.1986 C.3       12 UNK         0.0230 
     16 S16        27.7584   24.1917    6.2788 S.3       12 UNK        -0.2608 
     17 C17        26.5201   24.8466    5.1114 C.3       12 UNK        -0.0989 
     18 CA         26.9802   26.0725    4.2797 C.3       5 UNK         0.0716 
     19 N          26.0973   26.2517    3.1179 N.am      5 UNK        -0.4135 
     20 C          26.2685   27.1516    2.1429 C.2       4 UNK         0.5031 
     21 O          27.1268   28.0346    2.1691 O.2       4 UNK        -0.5229 
     22 CA         25.2857   27.0841    0.9613 C.3       4 UNK         0.0329 
     23 CB         24.0350   27.9274    1.2583 C.3       4 UNK        -0.2001 
     24 N          25.9021   27.5554   -0.2824 N.am      4 UNK        -0.4303 
     25 C          26.9579   26.9740   -0.8658 C.2       3 UNK         0.5044 
     26 O          27.4566   25.9116   -0.4770 O.2       3 UNK        -0.5152 
     27 CA         27.5627   27.7030   -2.0749 C.3       3 UNK         0.0319 
     28 CB         28.1448   29.0720   -1.6795 C.3       3 UNK        -0.2001 
     29 N          28.6289   26.8618   -2.6026 N.am      3 UNK        -0.4354 
     30 C          28.8851   26.6009   -3.8874 C.2       2 UNK         0.4964 
     31 O          28.3503   27.1848   -4.8307 O.2       2 UNK        -0.5047 
     32 CA         29.9012   25.4751   -4.1652 C.3       2 UNK         0.0288 
     33 CB         31.2922   26.0638   -4.4518 C.3       2 UNK        -0.2113 
     34 N          30.0079   24.5056   -3.0664 N.am      2 UNK        -0.4145 
     35 C          29.0408   23.6553   -2.6910 C.2       1 UNK         0.5006 
     36 O          27.9658   23.5450   -3.2845 O.2       1 UNK        -0.5103 
     37 C          27.1543   27.3513    5.1368 C.2       5 UNK         0.5055 
     38 O          28.2378   27.5848    5.6732 O.2       5 UNK        -0.5220 
     39 N          26.1019   28.1777    5.2151 N.am      6 UNK        -0.4450 
     40 CA         26.1168   29.4737    5.8982 C.3       6 UNK         0.0367 
     41 CB         24.6884   29.7958    6.3695 C.3       6 UNK        -0.1929 
     42 C          26.6628   30.6277    5.0321 C.2       6 UNK         0.5070 
     43 O          26.9505   31.6908    5.5833 O.2       6 UNK        -0.5237 
     44 N          26.7602   30.4343    3.7092 N.am      7 UNK        -0.4739 
     45 CA         27.1305   31.4704    2.7394 C.3       7 UNK         0.0276 
     46 CB         26.1504   31.4154    1.5554 C.3       7 UNK        -0.1927 
     47 C          28.5711   31.3234    2.2265 C.2       7 UNK         0.5013 
     48 O          29.1784   32.3343    1.8711 O.2       7 UNK        -0.5193 
     49 N          29.0767   30.0835    2.1614 N.am      8 UNK        -0.4253 
     50 CA         30.3979   29.7178    1.6481 C.3       8 UNK         0.0242 
     51 CB         30.5442   28.1875    1.6922 C.3       8 UNK        -0.2000 
     52 C          31.5469   30.4135    2.4001 C.2       8 UNK         0.4948 
     53 O          31.7208   30.1946    3.6005 O.2       8 UNK        -0.5275 
     54 N          32.3188   31.2289    1.6683 N.am      9 UNK        -0.4246 
     55 CA         33.4172   32.0487    2.1917 C.3       9 UNK         0.0261 
     56 CB         33.8040   33.0993    1.1377 C.3       9 UNK        -0.1959 
     57 C          34.6572   31.2498    2.6308 C.2       9 UNK         0.5033 
     58 O          35.4828   31.7898    3.3684 O.2       9 UNK        -0.5390 
     59 N          34.7686   29.9868    2.1925 N.am      10 UNK        -0.4215 
     60 CA         35.8674   29.0618    2.4986 C.3       10 UNK         0.0240 
     61 CB         35.6279   27.7377    1.7543 C.3       10 UNK        -0.1982 
     62 C          36.0875   28.7973    4.0010 C.2       10 UNK         0.4970 
     63 O          37.2081   28.4697    4.3931 O.2       10 UNK        -0.4916 
     64 N          35.0302   28.9562    4.8056 N.am      11 UNK        -0.4279 
     65 CA         35.0698   28.8772    6.2723 C.3       11 UNK         0.1003 
     66 C          35.5722   30.1800    6.9632 C.2       11 UNK         0.5709 
     67 N          35.8260   31.2727    6.2511 N.am      11 UNK        -0.7358 
     68 O          35.7518   30.1958    8.1788 O.2       11 UNK        -0.4999 
     69 C69        33.7040   28.4185    6.8457 C.3       12 UNK        -0.0954 
     70 S70        33.2653   26.7306    6.3133 S.3       12 UNK        -0.2268 
     71 C71        32.0787   27.0847    4.9841 C.3       12 UNK         0.0203 
     72 H72        26.2629   23.7532    1.0959 H         1 UNK         0.0888 
     73 H73        26.5096   22.4302    2.2391 H         1 UNK         0.0888 
     74 H74        27.5822   23.8373    2.2701 H         1 UNK         0.0888 
     75 H75        28.0284   24.1919   -0.4913 H         1 UNK         0.3017 
     76 H76        28.9992   21.7855   -1.7348 H         1 UNK         0.0873 
     77 H77        31.4380   22.4821   -1.7970 H         1 UNK         0.0745 
     78 H78        30.8613   21.8624   -0.2921 H         1 UNK         0.0745 
     79 H79        32.0948   22.4439    1.4110 H         1 UNK         0.0705 
     80 H80        33.2259   23.7593    1.3653 H         1 UNK         0.0705 
     81 H81        32.8666   25.7972    2.7063 H         1 UNK         0.1334 
     82 H82        30.1052   25.5317    5.9561 H         1 UNK         0.1417 
     83 H83        30.0955   22.5323    2.8762 H         1 UNK         0.1562 
     84 H84        29.3060   22.4143    5.8173 H         1 UNK         0.0748 
     85 H85        28.2187   22.6454    4.4740 H         1 UNK         0.0748 
     86 H86        25.6176   25.0895    5.6758 H         1 UNK         0.0940 
     87 H87        26.2337   24.0261    4.4522 H         1 UNK         0.0940 
     88 H88        27.9636   25.8506    3.8620 H         1 UNK         0.0703 
     89 H89        25.3341   25.5961    3.0358 H         1 UNK         0.3081 
     90 H90        24.9851   26.0449    0.8130 H         1 UNK         0.0719 
     91 H91        24.2807   28.9772    1.4210 H         1 UNK         0.0809 
     92 H92        23.3177   27.8749    0.4389 H         1 UNK         0.0809 
     93 H93        23.5237   27.5715    2.1537 H         1 UNK         0.0809 
     94 H94        25.5614   28.4294   -0.6540 H         1 UNK         0.2990 
     95 H95        26.7778   27.8326   -2.8230 H         1 UNK         0.0690 
     96 H96        28.6197   29.5598   -2.5309 H         1 UNK         0.0788 
     97 H97        28.8915   28.9742   -0.8923 H         1 UNK         0.0788 
     98 H98        27.3703   29.7463   -1.3131 H         1 UNK         0.0788 
     99 H99        29.0675   26.2793   -1.9014 H         1 UNK         0.2993 
    100 H100       29.5604   24.9416   -5.0552 H         1 UNK         0.0949 
    101 H101       31.2531   26.7711   -5.2817 H         1 UNK         0.0767 
    102 H102       31.6912   26.5964   -3.5874 H         1 UNK         0.0767 
    103 H103       32.0042   25.2848   -4.7254 H         1 UNK         0.0767 
    104 H104       30.8462   24.5430   -2.5007 H         1 UNK         0.3013 
    105 H105       25.2471   27.9192    4.7446 H         1 UNK         0.3121 
    106 H106       26.7544   29.4031    6.7824 H         1 UNK         0.0774 
    107 H107       24.6616   30.7371    6.9205 H         1 UNK         0.0815 
    108 H108       23.9972   29.8907    5.5310 H         1 UNK         0.0815 
    109 H109       24.3061   29.0229    7.0364 H         1 UNK         0.0815 
    110 H110       26.6001   29.5062    3.3323 H         1 UNK         0.2987 
    111 H111       27.0471   32.4593    3.1959 H         1 UNK         0.0949 
    112 H112       26.2128   30.4650    1.0246 H         1 UNK         0.0806 
    113 H113       25.1204   31.5513    1.8853 H         1 UNK         0.0806 
    114 H114       26.3662   32.2049    0.8341 H         1 UNK         0.0806 
    115 H115       28.4644   29.3098    2.4063 H         1 UNK         0.3010 
    116 H116       30.4337   30.0277    0.6022 H         1 UNK         0.0829 
    117 H117       29.8160   27.6970    1.0455 H         1 UNK         0.0813 
    118 H118       31.5348   27.8701    1.3644 H         1 UNK         0.0813 
    119 H119       30.3906   27.8055    2.7013 H         1 UNK         0.0813 
    120 H120       32.0931   31.3583    0.6921 H         1 UNK         0.3038 
    121 H121       33.0477   32.5738    3.0753 H         1 UNK         0.0769 
    122 H122       34.1675   32.6366    0.2192 H         1 UNK         0.0811 
    123 H123       34.5958   33.7520    1.5085 H         1 UNK         0.0811 
    124 H124       32.9570   33.7365    0.8824 H         1 UNK         0.0811 
    125 H125       34.0422   29.6399    1.5841 H         1 UNK         0.3204 
    126 H126       36.7855   29.5112    2.1147 H         1 UNK         0.0748 
    127 H127       35.5770   27.8900    0.6759 H         1 UNK         0.0771 
    128 H128       36.4387   27.0318    1.9406 H         1 UNK         0.0771 
    129 H129       34.7009   27.2594    2.0714 H         1 UNK         0.0771 
    130 H130       34.1535   29.2526    4.4022 H         1 UNK         0.2980 
    131 H131       35.8018   28.1143    6.5444 H         1 UNK         0.0545 
    132 H132       36.1565   32.0970    6.7265 H         1 UNK         0.3459 
    133 H133       35.6993   31.2944    5.2441 H         1 UNK         0.3459 
    134 H134       32.9124   29.1168    6.5674 H         1 UNK         0.0616 
    135 H135       33.7288   28.4076    7.9369 H         1 UNK         0.0616 
    136 H136       31.2592   27.6923    5.3723 H         1 UNK         0.0634 
    137 H137       32.5667   27.6780    4.2107 H         1 UNK         0.0634 
@<TRIPOS>BOND
     1    1    2 1    
     2    1   72 1    
     3    1   73 1    
     4    1   74 1    
     5    2    3 2    
     6    2    4 am   BACKBONE|DICT|INTERRES
     7    4    5 1    
     8    4   75 1    
     9    5    6 1    
    10    5   35 1    
    11    5   76 1    
    12    6    7 1    
    13    6   77 1    
    14    6   78 1    
    15    7    8 1    
    16    8    9 1    
    17    8   79 1    
    18    8   80 1    
    19    9   10 ar   
    20    9   14 ar   
    21   10   11 ar   
    22   10   81 1    
    23   11   12 ar   
    24   11   71 1    
    25   12   13 ar   
    26   12   82 1    
    27   13   14 ar   
    28   13   15 1    
    29   14   83 1    
    30   15   16 1    
    31   15   84 1    
    32   15   85 1    
    33   16   17 1    
    34   17   18 1    
    35   17   86 1    
    36   17   87 1    
    37   18   19 1    
    38   18   37 1    
    39   18   88 1    
    40   19   20 am   BACKBONE|DICT|INTERRES
    41   19   89 1    
    42   20   21 2    
    43   20   22 1    
    44   22   23 1    
    45   22   24 1    
    46   22   90 1    
    47   23   91 1    
    48   23   92 1    
    49   23   93 1    
    50   24   25 am   BACKBONE|DICT|INTERRES
    51   24   94 1    
    52   25   26 2    
    53   25   27 1    
    54   27   28 1    
    55   27   29 1    
    56   27   95 1    
    57   28   96 1    
    58   28   97 1    
    59   28   98 1    
    60   29   30 am   BACKBONE|DICT|INTERRES
    61   29   99 1    
    62   30   31 2    
    63   30   32 1    
    64   32   33 1    
    65   32   34 1    
    66   32  100 1    
    67   33  101 1    
    68   33  102 1    
    69   33  103 1    
    70   34   35 am   BACKBONE|DICT|INTERRES
    71   34  104 1    
    72   35   36 2    
    73   37   38 2    
    74   37   39 am   BACKBONE|DICT|INTERRES
    75   39   40 1    
    76   39  105 1    
    77   40   41 1    
    78   40   42 1    
    79   40  106 1    
    80   41  107 1    
    81   41  108 1    
    82   41  109 1    
    83   42   43 2    
    84   42   44 am   BACKBONE|DICT|INTERRES
    85   44   45 1    
    86   44  110 1    
    87   45   46 1    
    88   45   47 1    
    89   45  111 1    
    90   46  112 1    
    91   46  113 1    
    92   46  114 1    
    93   47   48 2    
    94   47   49 am   BACKBONE|DICT|INTERRES
    95   49   50 1    
    96   49  115 1    
    97   50   51 1    
    98   50   52 1    
    99   50  116 1    
   100   51  117 1    
   101   51  118 1    
   102   51  119 1    
   103   52   53 2    
   104   52   54 am   BACKBONE|DICT|INTERRES
   105   54   55 1    
   106   54  120 1    
   107   55   56 1    
   108   55   57 1    
   109   55  121 1    
   110   56  122 1    
   111   56  123 1    
   112   56  124 1    
   113   57   58 2    
   114   57   59 am   BACKBONE|DICT|INTERRES
   115   59   60 1    
   116   59  125 1    
   117   60   61 1    
   118   60   62 1    
   119   60  126 1    
   120   61  127 1    
   121   61  128 1    
   122   61  129 1    
   123   62   63 2    
   124   62   64 am   BACKBONE|DICT|INTERRES
   125   64   65 1    
   126   64  130 1    
   127   65   66 1    
   128   65   69 1    
   129   65  131 1    
   130   66   67 am   BACKBONE|DICT|INTERRES
   131   66   68 2    
   132   67  132 1    
   133   67  133 1    
   134   69   70 1    
   135   69  134 1    
   136   69  135 1    
   137   70   71 1    
   138   71  136 1    
   139   71  137 1    
@<TRIPOS>SUBSTRUCTURE
     1 UNK         1 GROUP             0       ****    0 ROOT    
