@<TRIPOS>MOLECULE
3R136
137   139    1
SMALL
USER_CHARGES


@<TRIPOS>ATOM
      1 CA         33.8117   23.4474    0.8753 C.3       0 UNK        -0.1979 
      2 C          32.2996   23.5286    0.7357 C.2       0 UNK         0.4864 
      3 O          31.7583   24.6225    0.5824 O.2       0 UNK        -0.5359 
      4 N          31.6119   22.3783    0.7680 N.am      1 UNK        -0.4318 
      5 CA         30.1444   22.2627    0.7901 C.3       1 UNK         0.0824 
      6 C6         29.6640   20.8193    1.1102 C.3       12 UNK        -0.0944 
      7 S7         30.5877   19.9732    2.4425 S.3       12 UNK        -0.2672 
      8 C8         29.7722   20.5901    3.9523 C.3       12 UNK         0.0333 
      9 C9         30.0854   22.0577    4.2100 C.ar      12 UNK        -0.0807 
     10 C10        31.4095   22.4760    4.3760 C.ar      12 UNK        -0.0894 
     11 C11        31.7112   23.8285    4.5550 C.ar      12 UNK        -0.0804 
     12 C12        30.6748   24.7669    4.5876 C.ar      12 UNK        -0.0824 
     13 C13        29.3441   24.3565    4.4552 C.ar      12 UNK        -0.0762 
     14 C14        29.0553   23.0011    4.2679 C.ar      12 UNK        -0.0782 
     15 C15        28.2128   25.3695    4.5299 C.3       12 UNK         0.0230 
     16 S16        27.4791   25.6756    2.8940 S.3       12 UNK        -0.2608 
     17 C17        26.1718   26.8689    3.3367 C.3       12 UNK        -0.0989 
     18 CA         26.5672   28.3139    2.9556 C.3       5 UNK         0.0716 
     19 N          26.6906   28.4836    1.5041 N.am      5 UNK        -0.4135 
     20 C          26.9841   29.6243    0.8689 C.2       4 UNK         0.5031 
     21 O          27.2126   30.6883    1.4471 O.2       4 UNK        -0.5229 
     22 CA         27.0868   29.5469   -0.6633 C.3       4 UNK         0.0329 
     23 CB         26.9567   30.9278   -1.3314 C.3       4 UNK        -0.2001 
     24 N          28.3583   28.9446   -1.0635 N.am      4 UNK        -0.4303 
     25 C          28.6188   27.6315   -1.0423 C.2       3 UNK         0.5044 
     26 O          27.7998   26.7858   -0.6727 O.2       3 UNK        -0.5152 
     27 CA         30.0301   27.2130   -1.4984 C.3       3 UNK         0.0319 
     28 CB         31.0886   27.6322   -0.4671 C.3       3 UNK        -0.2001 
     29 N          30.1418   25.7698   -1.7275 N.am      3 UNK        -0.4354 
     30 C          29.5833   25.1173   -2.7594 C.2       2 UNK         0.4964 
     31 O          28.9729   25.6834   -3.6681 O.2       2 UNK        -0.5047 
     32 CA         29.7426   23.5844   -2.8244 C.3       2 UNK         0.0288 
     33 CB         30.7219   23.1912   -3.9438 C.3       2 UNK        -0.2113 
     34 N          30.2003   22.9859   -1.5696 N.am      2 UNK        -0.4145 
     35 C          29.4410   22.7930   -0.4813 C.2       1 UNK         0.5006 
     36 O          28.2288   23.0100   -0.4536 O.2       1 UNK        -0.5103 
     37 C          25.5987   29.3384    3.5822 C.2       5 UNK         0.5055 
     38 O          24.4704   29.4837    3.1067 O.2       5 UNK        -0.5220 
     39 N          26.0852   30.0275    4.6249 N.am      6 UNK        -0.4450 
     40 CA         25.4421   31.1225    5.3633 C.3       6 UNK         0.0367 
     41 CB         24.1016   30.6775    5.9885 C.3       6 UNK        -0.1929 
     42 C          25.3178   32.4458    4.5763 C.2       6 UNK         0.5070 
     43 O          24.6112   33.3432    5.0386 O.2       6 UNK        -0.5237 
     44 N          26.0162   32.5762    3.4391 N.am      7 UNK        -0.4739 
     45 CA         26.0755   33.8006    2.6355 C.3       7 UNK         0.0276 
     46 CB         25.2049   33.6443    1.3772 C.3       7 UNK        -0.1927 
     47 C          27.5229   34.1621    2.2731 C.2       7 UNK         0.5013 
     48 O          27.9344   35.2991    2.5080 O.2       7 UNK        -0.5193 
     49 N          28.2723   33.1997    1.7232 N.am      8 UNK        -0.4253 
     50 CA         29.6579   33.3454    1.2865 C.3       8 UNK         0.0242 
     51 CB         29.7235   34.1109   -0.0519 C.3       8 UNK        -0.2000 
     52 C          30.2817   31.9475    1.1937 C.2       8 UNK         0.4948 
     53 O          30.3160   31.3580    0.1109 O.2       8 UNK        -0.5275 
     54 N          30.7334   31.4277    2.3393 N.am      9 UNK        -0.4246 
     55 CA         31.3971   30.1343    2.4678 C.3       9 UNK         0.0261 
     56 CB         30.3522   29.0319    2.7141 C.3       9 UNK        -0.1959 
     57 C          32.3925   30.1932    3.6284 C.2       9 UNK         0.5033 
     58 O          32.1931   30.9686    4.5677 O.2       9 UNK        -0.5390 
     59 N          33.4177   29.3421    3.5548 N.am      10 UNK        -0.4215 
     60 CA         34.4121   29.0949    4.5914 C.3       10 UNK         0.0240 
     61 CB         35.4872   30.1975    4.5878 C.3       10 UNK        -0.1982 
     62 C          35.0250   27.7212    4.3047 C.2       10 UNK         0.4970 
     63 O          35.1460   27.3504    3.1338 O.2       10 UNK        -0.4916 
     64 N          35.3922   26.9962    5.3650 N.am      11 UNK        -0.4279 
     65 CA         35.9851   25.6501    5.2832 C.3       11 UNK         0.1003 
     66 C          37.5417   25.6465    5.2806 C.2       11 UNK         0.5709 
     67 N          38.2129   26.7889    5.3710 N.am      11 UNK        -0.7358 
     68 O          38.1545   24.5864    5.1782 O.2       11 UNK        -0.4999 
     69 C69        35.4135   24.7034    6.3752 C.3       12 UNK        -0.0954 
     70 S70        33.5892   24.5899    6.4328 S.3       12 UNK        -0.2268 
     71 C71        33.1579   24.2734    4.6935 C.3       12 UNK         0.0203 
     72 H72        34.1506   24.1216    1.6616 H         1 UNK         0.0888 
     73 H73        34.1440   22.4402    1.1262 H         1 UNK         0.0888 
     74 H74        34.2908   23.7447   -0.0570 H         1 UNK         0.0888 
     75 H75        32.1062   21.5067    0.8986 H         1 UNK         0.3017 
     76 H76        29.8035   22.9154    1.5946 H         1 UNK         0.0873 
     77 H77        28.6029   20.8226    1.3672 H         1 UNK         0.0745 
     78 H78        29.7534   20.1897    0.2226 H         1 UNK         0.0745 
     79 H79        30.1179   20.0024    4.8038 H         1 UNK         0.0705 
     80 H80        28.6970   20.4206    3.8766 H         1 UNK         0.0705 
     81 H81        32.2074   21.7469    4.3389 H         1 UNK         0.1334 
     82 H82        30.9069   25.8140    4.7265 H         1 UNK         0.1417 
     83 H83        28.0267   22.6876    4.1499 H         1 UNK         0.1562 
     84 H84        28.5686   26.3135    4.9460 H         1 UNK         0.0748 
     85 H85        27.4443   24.9998    5.2107 H         1 UNK         0.0748 
     86 H86        25.9625   26.7894    4.4056 H         1 UNK         0.0940 
     87 H87        25.2486   26.5791    2.8308 H         1 UNK         0.0940 
     88 H88        27.5583   28.5044    3.3681 H         1 UNK         0.0703 
     89 H89        26.6192   27.6398    0.9479 H         1 UNK         0.3081 
     90 H90        26.2651   28.9253   -1.0260 H         1 UNK         0.0719 
     91 H91        27.7443   31.6104   -1.0116 H         1 UNK         0.0809 
     92 H92        27.0046   30.8485   -2.4175 H         1 UNK         0.0809 
     93 H93        26.0006   31.3898   -1.0850 H         1 UNK         0.0809 
     94 H94        29.1042   29.5904   -1.2873 H         1 UNK         0.2990 
     95 H95        30.2445   27.7238   -2.4396 H         1 UNK         0.0690 
     96 H96        32.0897   27.3357   -0.7809 H         1 UNK         0.0788 
     97 H97        30.8975   27.1785    0.5057 H         1 UNK         0.0788 
     98 H98        31.1005   28.7137   -0.3334 H         1 UNK         0.0788 
     99 H99        30.6087   25.2391   -0.9987 H         1 UNK         0.2993 
    100 H100       28.7614   23.1698   -3.0663 H         1 UNK         0.0949 
    101 H101       31.7245   23.5784   -3.7574 H         1 UNK         0.0767 
    102 H102       30.7924   22.1082   -4.0477 H         1 UNK         0.0767 
    103 H103       30.3941   23.5858   -4.9067 H         1 UNK         0.0767 
    104 H104       31.1855   22.7780   -1.4973 H         1 UNK         0.3013 
    105 H105       27.0297   29.8227    4.9216 H         1 UNK         0.3121 
    106 H106       26.1176   31.3465    6.1903 H         1 UNK         0.0774 
    107 H107       23.7288   31.4271    6.6876 H         1 UNK         0.0815 
    108 H108       23.3286   30.5315    5.2337 H         1 UNK         0.0815 
    109 H109       24.2106   29.7464    6.5443 H         1 UNK         0.0815 
    110 H110       26.5505   31.7868    3.0933 H         1 UNK         0.2987 
    111 H111       25.6834   34.6444    3.2079 H         1 UNK         0.0949 
    112 H112       25.2667   34.5306    0.7444 H         1 UNK         0.0806 
    113 H113       25.5130   32.7892    0.7766 H         1 UNK         0.0806 
    114 H114       24.1563   33.5048    1.6401 H         1 UNK         0.0806 
    115 H115       27.8668   32.2726    1.5759 H         1 UNK         0.3010 
    116 H116       30.2134   33.9132    2.0362 H         1 UNK         0.0829 
    117 H117       29.3636   35.1341    0.0553 H         1 UNK         0.0813 
    118 H118       30.7493   34.1665   -0.4183 H         1 UNK         0.0813 
    119 H119       29.1262   33.6268   -0.8249 H         1 UNK         0.0813 
    120 H120       30.7081   31.9714    3.1933 H         1 UNK         0.3038 
    121 H121       31.9533   29.9193    1.5530 H         1 UNK         0.0769 
    122 H122       29.7829   29.2232    3.6237 H         1 UNK         0.0811 
    123 H123       30.8231   28.0542    2.8242 H         1 UNK         0.0811 
    124 H124       29.6505   28.9605    1.8846 H         1 UNK         0.0811 
    125 H125       33.5058   28.7204    2.7588 H         1 UNK         0.3204 
    126 H126       33.9138   29.0675    5.5630 H         1 UNK         0.0748 
    127 H127       36.2407   30.0130    5.3542 H         1 UNK         0.0771 
    128 H128       36.0020   30.2541    3.6277 H         1 UNK         0.0771 
    129 H129       35.0538   31.1767    4.7921 H         1 UNK         0.0771 
    130 H130       35.2698   27.3706    6.2947 H         1 UNK         0.2980 
    131 H131       35.7227   25.2125    4.3192 H         1 UNK         0.0545 
    132 H132       39.2206   26.7701    5.3616 H         1 UNK         0.3459 
    133 H133       37.7250   27.6666    5.4437 H         1 UNK         0.3459 
    134 H134       35.7541   25.0210    7.3622 H         1 UNK         0.0616 
    135 H135       35.7966   23.6907    6.2359 H         1 UNK         0.0616 
    136 H136       33.3148   25.1772    4.1037 H         1 UNK         0.0634 
    137 H137       33.8280   23.5141    4.2872 H         1 UNK         0.0634 
@<TRIPOS>BOND
     1    1    2 1    
     2    1   72 1    
     3    1   73 1    
     4    1   74 1    
     5    2    3 2    
     6    2    4 am   BACKBONE|DICT|INTERRES
     7    4    5 1    
     8    4   75 1    
     9    5    6 1    
    10    5   35 1    
    11    5   76 1    
    12    6    7 1    
    13    6   77 1    
    14    6   78 1    
    15    7    8 1    
    16    8    9 1    
    17    8   79 1    
    18    8   80 1    
    19    9   10 ar   
    20    9   14 ar   
    21   10   11 ar   
    22   10   81 1    
    23   11   12 ar   
    24   11   71 1    
    25   12   13 ar   
    26   12   82 1    
    27   13   14 ar   
    28   13   15 1    
    29   14   83 1    
    30   15   16 1    
    31   15   84 1    
    32   15   85 1    
    33   16   17 1    
    34   17   18 1    
    35   17   86 1    
    36   17   87 1    
    37   18   19 1    
    38   18   37 1    
    39   18   88 1    
    40   19   20 am   BACKBONE|DICT|INTERRES
    41   19   89 1    
    42   20   21 2    
    43   20   22 1    
    44   22   23 1    
    45   22   24 1    
    46   22   90 1    
    47   23   91 1    
    48   23   92 1    
    49   23   93 1    
    50   24   25 am   BACKBONE|DICT|INTERRES
    51   24   94 1    
    52   25   26 2    
    53   25   27 1    
    54   27   28 1    
    55   27   29 1    
    56   27   95 1    
    57   28   96 1    
    58   28   97 1    
    59   28   98 1    
    60   29   30 am   BACKBONE|DICT|INTERRES
    61   29   99 1    
    62   30   31 2    
    63   30   32 1    
    64   32   33 1    
    65   32   34 1    
    66   32  100 1    
    67   33  101 1    
    68   33  102 1    
    69   33  103 1    
    70   34   35 am   BACKBONE|DICT|INTERRES
    71   34  104 1    
    72   35   36 2    
    73   37   38 2    
    74   37   39 am   BACKBONE|DICT|INTERRES
    75   39   40 1    
    76   39  105 1    
    77   40   41 1    
    78   40   42 1    
    79   40  106 1    
    80   41  107 1    
    81   41  108 1    
    82   41  109 1    
    83   42   43 2    
    84   42   44 am   BACKBONE|DICT|INTERRES
    85   44   45 1    
    86   44  110 1    
    87   45   46 1    
    88   45   47 1    
    89   45  111 1    
    90   46  112 1    
    91   46  113 1    
    92   46  114 1    
    93   47   48 2    
    94   47   49 am   BACKBONE|DICT|INTERRES
    95   49   50 1    
    96   49  115 1    
    97   50   51 1    
    98   50   52 1    
    99   50  116 1    
   100   51  117 1    
   101   51  118 1    
   102   51  119 1    
   103   52   53 2    
   104   52   54 am   BACKBONE|DICT|INTERRES
   105   54   55 1    
   106   54  120 1    
   107   55   56 1    
   108   55   57 1    
   109   55  121 1    
   110   56  122 1    
   111   56  123 1    
   112   56  124 1    
   113   57   58 2    
   114   57   59 am   BACKBONE|DICT|INTERRES
   115   59   60 1    
   116   59  125 1    
   117   60   61 1    
   118   60   62 1    
   119   60  126 1    
   120   61  127 1    
   121   61  128 1    
   122   61  129 1    
   123   62   63 2    
   124   62   64 am   BACKBONE|DICT|INTERRES
   125   64   65 1    
   126   64  130 1    
   127   65   66 1    
   128   65   69 1    
   129   65  131 1    
   130   66   67 am   BACKBONE|DICT|INTERRES
   131   66   68 2    
   132   67  132 1    
   133   67  133 1    
   134   69   70 1    
   135   69  134 1    
   136   69  135 1    
   137   70   71 1    
   138   71  136 1    
   139   71  137 1    
@<TRIPOS>SUBSTRUCTURE
     1 UNK         1 GROUP             0       ****    0 ROOT    
