@<TRIPOS>MOLECULE
3R136
137   139    1
SMALL
USER_CHARGES


@<TRIPOS>ATOM
      1 CA         27.9673   21.9815   -4.3829 C.3       0 UNK        -0.1979 
      2 C          28.0220   23.0604   -3.3110 C.2       0 UNK         0.4864 
      3 O          28.1526   24.2409   -3.6386 O.2       0 UNK        -0.5359 
      4 N          27.9318   22.6623   -2.0358 N.am      1 UNK        -0.4318 
      5 CA         27.9268   23.5560   -0.8721 C.3       1 UNK         0.0824 
      6 C6         28.1281   22.7811    0.4576 C.3       12 UNK        -0.0944 
      7 S7         29.6183   21.7321    0.4561 S.3       12 UNK        -0.2672 
      8 C8         30.0259   21.6348    2.2355 C.3       12 UNK         0.0333 
      9 C9         31.2164   22.4960    2.6556 C.ar      12 UNK        -0.0807 
     10 C10        31.2278   23.0959    3.9214 C.ar      12 UNK        -0.0894 
     11 C11        32.3409   23.8238    4.3600 C.ar      12 UNK        -0.0804 
     12 C12        33.4511   23.9393    3.5219 C.ar      12 UNK        -0.0824 
     13 C13        33.4339   23.3961    2.2367 C.ar      12 UNK        -0.0762 
     14 C14        32.3280   22.6537    1.8185 C.ar      12 UNK        -0.0782 
     15 C15        34.5959   23.6532    1.2890 C.3       12 UNK         0.0230 
     16 S16        34.1532   24.8407   -0.0262 S.3       12 UNK        -0.2608 
     17 C17        33.3768   26.2142    0.8994 C.3       12 UNK        -0.0989 
     18 CA         31.8260   26.2121    0.7380 C.3       5 UNK         0.0716 
     19 N          31.1239   26.2831    2.0322 N.am      5 UNK        -0.4135 
     20 C          29.7948   26.1856    2.1936 C.2       4 UNK         0.5031 
     21 O          29.0048   26.0344    1.2575 O.2       4 UNK        -0.5229 
     22 CA         29.2622   26.3342    3.6302 C.3       4 UNK         0.0329 
     23 CB         29.4693   27.7702    4.1374 C.3       4 UNK        -0.2001 
     24 N          27.8304   26.0596    3.6723 N.am      4 UNK        -0.4303 
     25 C          27.2479   24.8909    3.9509 C.2       3 UNK         0.5044 
     26 O          27.8451   23.9047    4.3809 O.2       3 UNK        -0.5152 
     27 CA         25.7397   24.7939    3.6454 C.3       3 UNK         0.0319 
     28 CB         24.8915   25.5552    4.6835 C.3       3 UNK        -0.2001 
     29 N          25.4234   25.1865    2.2620 N.am      3 UNK        -0.4354 
     30 C          25.5271   26.3973    1.6886 C.2       2 UNK         0.4964 
     31 O          25.7269   27.4419    2.3113 O.2       2 UNK        -0.5047 
     32 CA         25.5562   26.3993    0.1536 C.3       2 UNK         0.0288 
     33 CB         25.7340   27.8093   -0.4402 C.3       2 UNK        -0.2113 
     34 N          26.6948   25.5713   -0.2423 N.am      2 UNK        -0.4145 
     35 C          26.6141   24.3635   -0.8067 C.2       1 UNK         0.5006 
     36 O          25.5559   23.8552   -1.1884 O.2       1 UNK        -0.5103 
     37 C          31.3736   27.2929   -0.2730 C.2       5 UNK         0.5055 
     38 O          31.4208   27.0554   -1.4808 O.2       5 UNK        -0.5220 
     39 N          30.9301   28.4466    0.2388 N.am      6 UNK        -0.4450 
     40 CA         30.2841   29.5203   -0.5021 C.3       6 UNK         0.0367 
     41 CB         31.3296   30.5545   -0.9511 C.3       6 UNK        -0.1929 
     42 C          29.2489   30.1527    0.4309 C.2       6 UNK         0.5070 
     43 O          29.4488   30.1473    1.6499 O.2       6 UNK        -0.5237 
     44 N          28.1889   30.7251   -0.1552 N.am      7 UNK        -0.4739 
     45 CA         27.0356   31.3190    0.5399 C.3       7 UNK         0.0276 
     46 CB         25.9786   31.7200   -0.5023 C.3       7 UNK        -0.1927 
     47 C          27.3635   32.5112    1.4611 C.2       7 UNK         0.5013 
     48 O          26.5438   32.8610    2.3103 O.2       7 UNK        -0.5193 
     49 N          28.5623   33.0881    1.3052 N.am      8 UNK        -0.4253 
     50 CA         29.1508   34.0967    2.1897 C.3       8 UNK         0.0242 
     51 CB         30.3284   34.7603    1.4539 C.3       8 UNK        -0.2000 
     52 C          29.6095   33.5435    3.5578 C.2       8 UNK         0.4948 
     53 O          30.0660   34.3338    4.3845 O.2       8 UNK        -0.5275 
     54 N          29.5070   32.2194    3.7667 N.am      9 UNK        -0.4246 
     55 CA         29.9566   31.4569    4.9382 C.3       9 UNK         0.0261 
     56 CB         29.2666   31.9252    6.2376 C.3       9 UNK        -0.1959 
     57 C          31.4913   31.4180    5.0339 C.2       9 UNK         0.5033 
     58 O          32.0547   31.5881    6.1169 O.2       9 UNK        -0.5390 
     59 N          32.1371   31.1894    3.8804 N.am      10 UNK        -0.4215 
     60 CA         33.5898   31.2391    3.6784 C.3       10 UNK         0.0240 
     61 CB         33.8986   30.9772    2.1949 C.3       10 UNK        -0.1982 
     62 C          34.4143   30.2954    4.5730 C.2       10 UNK         0.4970 
     63 O          35.5559   30.6281    4.8943 O.2       10 UNK        -0.4916 
     64 N          33.8319   29.1529    4.9574 N.am      11 UNK        -0.4279 
     65 CA         34.4325   28.1831    5.8849 C.3       11 UNK         0.1003 
     66 C          34.1908   28.4928    7.3925 C.2       11 UNK         0.5709 
     67 N          33.4705   29.5487    7.7561 N.am      11 UNK        -0.7358 
     68 O          34.6877   27.7706    8.2536 O.2       11 UNK        -0.4999 
     69 C69        34.0795   26.7266    5.4853 C.3       12 UNK        -0.0954 
     70 S70        32.3098   26.3011    5.6396 S.3       12 UNK        -0.2268 
     71 C71        32.3528   24.4779    5.7372 C.3       12 UNK         0.0203 
     72 H72        27.1192   22.1536   -5.0451 H         1 UNK         0.0888 
     73 H73        27.8653   20.9849   -3.9535 H         1 UNK         0.0888 
     74 H74        28.8775   22.0007   -4.9817 H         1 UNK         0.0888 
     75 H75        27.8222   21.6807   -1.8262 H         1 UNK         0.3017 
     76 H76        28.7557   24.2585   -0.9897 H         1 UNK         0.0873 
     77 H77        28.2002   23.4805    1.2923 H         1 UNK         0.0745 
     78 H78        27.2697   22.1400    0.6686 H         1 UNK         0.0745 
     79 H79        30.2646   20.5972    2.4714 H         1 UNK         0.0705 
     80 H80        29.1432   21.8834    2.8269 H         1 UNK         0.0705 
     81 H81        30.3715   22.9842    4.5730 H         1 UNK         0.1334 
     82 H82        34.3234   24.4793    3.8563 H         1 UNK         0.1417 
     83 H83        32.3349   22.2117    0.8318 H         1 UNK         0.1562 
     84 H84        34.9102   22.7140    0.8316 H         1 UNK         0.0748 
     85 H85        35.4623   24.0340    1.8322 H         1 UNK         0.0748 
     86 H86        33.8261   27.1477    0.5530 H         1 UNK         0.0940 
     87 H87        33.6720   26.1526    1.9461 H         1 UNK         0.0940 
     88 H88        31.5148   25.2569    0.3084 H         1 UNK         0.0703 
     89 H89        31.7028   26.3657    2.8548 H         1 UNK         0.3081 
     90 H90        29.7946   25.6340    4.2748 H         1 UNK         0.0719 
     91 H91        28.8600   28.4788    3.5758 H         1 UNK         0.0809 
     92 H92        29.1927   27.8557    5.1885 H         1 UNK         0.0809 
     93 H93        30.5070   28.0911    4.0511 H         1 UNK         0.0809 
     94 H94        27.2324   26.7709    3.2602 H         1 UNK         0.2990 
     95 H95        25.4716   23.7386    3.7198 H         1 UNK         0.0690 
     96 H96        23.8266   25.4561    4.4732 H         1 UNK         0.0788 
     97 H97        25.1290   26.6186    4.7151 H         1 UNK         0.0788 
     98 H98        25.0627   25.1590    5.6852 H         1 UNK         0.0788 
     99 H99        25.2668   24.4074    1.6374 H         1 UNK         0.2993 
    100 H100       24.6113   25.9845   -0.2040 H         1 UNK         0.0949 
    101 H101       26.6681   28.2664   -0.1127 H         1 UNK         0.0767 
    102 H102       25.7413   27.7805   -1.5298 H         1 UNK         0.0767 
    103 H103       24.9198   28.4684   -0.1364 H         1 UNK         0.0767 
    104 H104       27.5938   25.8531    0.1521 H         1 UNK         0.3013 
    105 H105       30.8529   28.5456    1.2426 H         1 UNK         0.3121 
    106 H106       29.7685   29.1087   -1.3728 H         1 UNK         0.0774 
    107 H107       30.8666   31.3552   -1.5289 H         1 UNK         0.0815 
    108 H108       31.8338   31.0137   -0.1010 H         1 UNK         0.0815 
    109 H109       32.0908   30.0980   -1.5840 H         1 UNK         0.0815 
    110 H110       28.1332   30.7072   -1.1640 H         1 UNK         0.2987 
    111 H111       26.6082   30.5422    1.1784 H         1 UNK         0.0949 
    112 H112       26.3551   32.4822   -1.1856 H         1 UNK         0.0806 
    113 H113       25.6587   30.8636   -1.0959 H         1 UNK         0.0806 
    114 H114       25.0878   32.1259   -0.0204 H         1 UNK         0.0806 
    115 H115       29.1558   32.7282    0.5725 H         1 UNK         0.3010 
    116 H116       28.3947   34.8591    2.3890 H         1 UNK         0.0829 
    117 H117       30.0089   35.2049    0.5111 H         1 UNK         0.0813 
    118 H118       30.7649   35.5608    2.0530 H         1 UNK         0.0813 
    119 H119       31.1238   34.0458    1.2376 H         1 UNK         0.0813 
    120 H120       29.1651   31.6508    2.9978 H         1 UNK         0.3038 
    121 H121       29.6384   30.4309    4.7644 H         1 UNK         0.0769 
    122 H122       29.5934   32.9204    6.5397 H         1 UNK         0.0811 
    123 H123       29.4953   31.2488    7.0621 H         1 UNK         0.0811 
    124 H124       28.1827   31.9458    6.1260 H         1 UNK         0.0811 
    125 H125       31.5733   31.0573    3.0525 H         1 UNK         0.3204 
    126 H126       33.9084   32.2561    3.9165 H         1 UNK         0.0748 
    127 H127       34.9736   30.9939    2.0089 H         1 UNK         0.0771 
    128 H128       33.5265   30.0054    1.8674 H         1 UNK         0.0771 
    129 H129       33.4544   31.7427    1.5587 H         1 UNK         0.0771 
    130 H130       32.8808   28.9697    4.6801 H         1 UNK         0.2980 
    131 H131       35.5158   28.2557    5.7718 H         1 UNK         0.0545 
    132 H132       33.0645   30.1779    7.0710 H         1 UNK         0.3459 
    133 H133       33.3358   29.7311    8.7373 H         1 UNK         0.3459 
    134 H134       34.6694   26.0248    6.0773 H         1 UNK         0.0616 
    135 H135       34.3795   26.5743    4.4491 H         1 UNK         0.0616 
    136 H136       33.2297   24.1505    6.2971 H         1 UNK         0.0634 
    137 H137       31.4867   24.1505    6.3142 H         1 UNK         0.0634 
@<TRIPOS>BOND
     1    1    2 1    
     2    1   72 1    
     3    1   73 1    
     4    1   74 1    
     5    2    3 2    
     6    2    4 am   BACKBONE|DICT|INTERRES
     7    4    5 1    
     8    4   75 1    
     9    5    6 1    
    10    5   35 1    
    11    5   76 1    
    12    6    7 1    
    13    6   77 1    
    14    6   78 1    
    15    7    8 1    
    16    8    9 1    
    17    8   79 1    
    18    8   80 1    
    19    9   10 ar   
    20    9   14 ar   
    21   10   11 ar   
    22   10   81 1    
    23   11   12 ar   
    24   11   71 1    
    25   12   13 ar   
    26   12   82 1    
    27   13   14 ar   
    28   13   15 1    
    29   14   83 1    
    30   15   16 1    
    31   15   84 1    
    32   15   85 1    
    33   16   17 1    
    34   17   18 1    
    35   17   86 1    
    36   17   87 1    
    37   18   19 1    
    38   18   37 1    
    39   18   88 1    
    40   19   20 am   BACKBONE|DICT|INTERRES
    41   19   89 1    
    42   20   21 2    
    43   20   22 1    
    44   22   23 1    
    45   22   24 1    
    46   22   90 1    
    47   23   91 1    
    48   23   92 1    
    49   23   93 1    
    50   24   25 am   BACKBONE|DICT|INTERRES
    51   24   94 1    
    52   25   26 2    
    53   25   27 1    
    54   27   28 1    
    55   27   29 1    
    56   27   95 1    
    57   28   96 1    
    58   28   97 1    
    59   28   98 1    
    60   29   30 am   BACKBONE|DICT|INTERRES
    61   29   99 1    
    62   30   31 2    
    63   30   32 1    
    64   32   33 1    
    65   32   34 1    
    66   32  100 1    
    67   33  101 1    
    68   33  102 1    
    69   33  103 1    
    70   34   35 am   BACKBONE|DICT|INTERRES
    71   34  104 1    
    72   35   36 2    
    73   37   38 2    
    74   37   39 am   BACKBONE|DICT|INTERRES
    75   39   40 1    
    76   39  105 1    
    77   40   41 1    
    78   40   42 1    
    79   40  106 1    
    80   41  107 1    
    81   41  108 1    
    82   41  109 1    
    83   42   43 2    
    84   42   44 am   BACKBONE|DICT|INTERRES
    85   44   45 1    
    86   44  110 1    
    87   45   46 1    
    88   45   47 1    
    89   45  111 1    
    90   46  112 1    
    91   46  113 1    
    92   46  114 1    
    93   47   48 2    
    94   47   49 am   BACKBONE|DICT|INTERRES
    95   49   50 1    
    96   49  115 1    
    97   50   51 1    
    98   50   52 1    
    99   50  116 1    
   100   51  117 1    
   101   51  118 1    
   102   51  119 1    
   103   52   53 2    
   104   52   54 am   BACKBONE|DICT|INTERRES
   105   54   55 1    
   106   54  120 1    
   107   55   56 1    
   108   55   57 1    
   109   55  121 1    
   110   56  122 1    
   111   56  123 1    
   112   56  124 1    
   113   57   58 2    
   114   57   59 am   BACKBONE|DICT|INTERRES
   115   59   60 1    
   116   59  125 1    
   117   60   61 1    
   118   60   62 1    
   119   60  126 1    
   120   61  127 1    
   121   61  128 1    
   122   61  129 1    
   123   62   63 2    
   124   62   64 am   BACKBONE|DICT|INTERRES
   125   64   65 1    
   126   64  130 1    
   127   65   66 1    
   128   65   69 1    
   129   65  131 1    
   130   66   67 am   BACKBONE|DICT|INTERRES
   131   66   68 2    
   132   67  132 1    
   133   67  133 1    
   134   69   70 1    
   135   69  134 1    
   136   69  135 1    
   137   70   71 1    
   138   71  136 1    
   139   71  137 1    
@<TRIPOS>SUBSTRUCTURE
     1 UNK         1 GROUP             0       ****    0 ROOT    
