@<TRIPOS>MOLECULE
3R136
137   139    1
SMALL
USER_CHARGES


@<TRIPOS>ATOM
      1 CA         26.7351   22.3458   -2.1202 C.3       0 UNK        -0.1979 
      2 C          27.2390   23.0445   -0.8673 C.2       0 UNK         0.4864 
      3 O          27.1358   24.2680   -0.7711 O.2       0 UNK        -0.5359 
      4 N          27.7862   22.2828    0.0871 N.am      1 UNK        -0.4318 
      5 CA         28.2917   22.7756    1.3723 C.3       1 UNK         0.0824 
      6 C6         29.1110   21.6982    2.1303 C.3       12 UNK        -0.0944 
      7 S7         30.4278   20.9474    1.1110 S.3       12 UNK        -0.2672 
      8 C8         31.9305   21.2825    2.0860 C.3       12 UNK         0.0333 
      9 C9         32.3596   22.7434    2.0350 C.ar      12 UNK        -0.0807 
     10 C10        32.5622   23.4592    3.2192 C.ar      12 UNK        -0.0894 
     11 C11        32.9923   24.7893    3.1821 C.ar      12 UNK        -0.0804 
     12 C12        33.2134   25.4033    1.9453 C.ar      12 UNK        -0.0824 
     13 C13        33.0206   24.6985    0.7540 C.ar      12 UNK        -0.0762 
     14 C14        32.5969   23.3678    0.8060 C.ar      12 UNK        -0.0782 
     15 C15        33.3015   25.3629   -0.5877 C.3       12 UNK         0.0230 
     16 S16        32.2661   26.8323   -0.8787 S.3       12 UNK        -0.2608 
     17 C17        30.6081   26.0952   -1.0709 C.3       12 UNK        -0.0989 
     18 CA         29.4885   27.1154   -0.7424 C.3       5 UNK         0.0716 
     19 N          28.2508   26.7799   -1.4385 N.am      5 UNK        -0.4135 
     20 C          27.6212   27.5445   -2.3371 C.2       4 UNK         0.5031 
     21 O          28.0670   28.6025   -2.7834 O.2       4 UNK        -0.5229 
     22 CA         26.2452   27.0494   -2.8082 C.3       4 UNK         0.0329 
     23 CB         26.3981   26.0523   -3.9682 C.3       4 UNK        -0.2001 
     24 N          25.5013   26.4150   -1.7192 N.am      4 UNK        -0.4303 
     25 C          24.7969   27.0711   -0.7894 C.2       3 UNK         0.5044 
     26 O          24.6459   28.2930   -0.7715 O.2       3 UNK        -0.5152 
     27 CA         24.1667   26.2163    0.3147 C.3       3 UNK         0.0319 
     28 CB         23.5168   24.9214   -0.2195 C.3       3 UNK        -0.2001 
     29 N          25.1838   25.9105    1.3152 N.am      3 UNK        -0.4354 
     30 C          24.9398   25.5562    2.5828 C.2       2 UNK         0.4964 
     31 O          23.8086   25.4552    3.0622 O.2       2 UNK        -0.5047 
     32 CA         26.1781   25.2694    3.4527 C.3       2 UNK         0.0288 
     33 CB         25.8482   24.6058    4.8076 C.3       2 UNK        -0.2113 
     34 N          27.2043   24.5198    2.7159 N.am      2 UNK        -0.4145 
     35 C          27.1166   23.2691    2.2421 C.2       1 UNK         0.5006 
     36 O          26.1687   22.5085    2.4555 O.2       1 UNK        -0.5103 
     37 C          29.1888   27.1876    0.7661 C.2       5 UNK         0.5055 
     38 O          28.1424   26.7085    1.2117 O.2       5 UNK        -0.5220 
     39 N          30.1197   27.7826    1.5233 N.am      6 UNK        -0.4450 
     40 CA         30.0644   28.0279    2.9721 C.3       6 UNK         0.0367 
     41 CB         29.9465   26.7073    3.7627 C.3       6 UNK        -0.1929 
     42 C          28.9791   29.0450    3.3814 C.2       6 UNK         0.5070 
     43 O          28.4682   28.9794    4.5005 O.2       6 UNK        -0.5237 
     44 N          28.6344   29.9647    2.4692 N.am      7 UNK        -0.4739 
     45 CA         27.6011   30.9841    2.6716 C.3       7 UNK         0.0276 
     46 CB         27.1863   31.5588    1.3074 C.3       7 UNK        -0.1927 
     47 C          28.0297   32.1111    3.6288 C.2       7 UNK         0.5013 
     48 O          27.1720   32.6839    4.3022 O.2       7 UNK        -0.5193 
     49 N          29.3335   32.4092    3.6738 N.am      8 UNK        -0.4253 
     50 CA         29.9577   33.4294    4.5122 C.3       8 UNK         0.0242 
     51 CB         29.6365   34.8384    3.9724 C.3       8 UNK        -0.2000 
     52 C          31.4726   33.1905    4.5290 C.2       8 UNK         0.4948 
     53 O          31.9874   32.5127    3.6355 O.2       8 UNK        -0.5275 
     54 N          32.1490   33.7818    5.5263 N.am      9 UNK        -0.4246 
     55 CA         33.6056   33.7843    5.7352 C.3       9 UNK         0.0261 
     56 CB         34.3083   34.6088    4.6346 C.3       9 UNK        -0.1959 
     57 C          34.2036   32.3720    5.8963 C.2       9 UNK         0.5033 
     58 O          35.2362   32.0656    5.2943 O.2       9 UNK        -0.5390 
     59 N          33.5329   31.5349    6.7035 N.am      10 UNK        -0.4215 
     60 CA         33.8258   30.1149    6.9332 C.3       10 UNK         0.0240 
     61 CB         35.1448   29.9377    7.7220 C.3       10 UNK        -0.1982 
     62 C          33.7614   29.3342    5.6072 C.2       10 UNK         0.4970 
     63 O          32.6746   29.2411    5.0371 O.2       10 UNK        -0.4916 
     64 N          34.9035   28.8196    5.1382 N.am      11 UNK        -0.4279 
     65 CA         35.0658   28.1894    3.8191 C.3       11 UNK         0.1003 
     66 C          35.8117   29.0966    2.7971 C.2       11 UNK         0.5709 
     67 N          36.0829   30.3636    3.0899 N.am      11 UNK        -0.7358 
     68 O          36.1399   28.6477    1.7016 O.2       11 UNK        -0.4999 
     69 C69        35.7126   26.7768    3.9200 C.3       12 UNK        -0.0954 
     70 S70        34.8878   25.6152    5.0667 S.3       12 UNK        -0.2268 
     71 C71        33.1644   25.5724    4.4775 C.3       12 UNK         0.0203 
     72 H72        26.8296   21.2625   -2.0477 H         1 UNK         0.0888 
     73 H73        25.6850   22.5841   -2.2864 H         1 UNK         0.0888 
     74 H74        27.3031   22.6790   -2.9881 H         1 UNK         0.0888 
     75 H75        27.8427   21.2830   -0.0418 H         1 UNK         0.3017 
     76 H76        28.9548   23.6183    1.1624 H         1 UNK         0.0873 
     77 H77        28.4621   20.8880    2.4696 H         1 UNK         0.0745 
     78 H78        29.5514   22.1296    3.0314 H         1 UNK         0.0745 
     79 H79        31.7705   20.9524    3.1137 H         1 UNK         0.0705 
     80 H80        32.7429   20.6703    1.6924 H         1 UNK         0.0705 
     81 H81        32.3869   22.9810    4.1734 H         1 UNK         0.1334 
     82 H82        33.5338   26.4333    1.9001 H         1 UNK         0.1417 
     83 H83        32.4546   22.8104   -0.1101 H         1 UNK         0.1562 
     84 H84        33.1616   24.6615   -1.4118 H         1 UNK         0.0748 
     85 H85        34.3498   25.6633   -0.6162 H         1 UNK         0.0748 
     86 H86        30.5119   25.1880   -0.4704 H         1 UNK         0.0940 
     87 H87        30.5279   25.7714   -2.1102 H         1 UNK         0.0940 
     88 H88        29.8099   28.1119   -1.0533 H         1 UNK         0.0703 
     89 H89        27.7903   25.9324   -1.1086 H         1 UNK         0.3081 
     90 H90        25.6806   27.9113   -3.1704 H         1 UNK         0.0719 
     91 H91        26.9599   25.1664   -3.6697 H         1 UNK         0.0809 
     92 H92        25.4271   25.7245   -4.3396 H         1 UNK         0.0809 
     93 H93        26.9283   26.5079   -4.8057 H         1 UNK         0.0809 
     94 H94        25.6626   25.4237   -1.5806 H         1 UNK         0.2990 
     95 H95        23.3871   26.8233    0.7801 H         1 UNK         0.0690 
     96 H96        22.8482   25.1325   -1.0551 H         1 UNK         0.0788 
     97 H97        22.9205   24.4349    0.5526 H         1 UNK         0.0788 
     98 H98        24.2585   24.1992   -0.5612 H         1 UNK         0.0788 
     99 H99        26.1511   26.0180    1.0226 H         1 UNK         0.2993 
    100 H100       26.6083   26.2483    3.6689 H         1 UNK         0.0949 
    101 H101       26.7514   24.4276    5.3912 H         1 UNK         0.0767 
    102 H102       25.1980   25.2460    5.4049 H         1 UNK         0.0767 
    103 H103       25.3345   23.6525    4.6819 H         1 UNK         0.0767 
    104 H104       27.9601   25.1011    2.3677 H         1 UNK         0.3013 
    105 H105       30.9570   28.1091    1.0588 H         1 UNK         0.3121 
    106 H106       31.0225   28.4809    3.2244 H         1 UNK         0.0774 
    107 H107       28.9164   26.3667    3.8298 H         1 UNK         0.0815 
    108 H108       30.3021   26.8391    4.7850 H         1 UNK         0.0815 
    109 H109       30.5252   25.9071    3.3068 H         1 UNK         0.0815 
    110 H110       29.0954   29.9491    1.5714 H         1 UNK         0.2987 
    111 H111       26.7276   30.4987    3.1133 H         1 UNK         0.0949 
    112 H112       28.0212   32.0454    0.8015 H         1 UNK         0.0806 
    113 H113       26.8005   30.7795    0.6492 H         1 UNK         0.0806 
    114 H114       26.3969   32.3030    1.4223 H         1 UNK         0.0806 
    115 H115       29.9915   31.8733    3.1204 H         1 UNK         0.3010 
    116 H116       29.5775   33.3266    5.5308 H         1 UNK         0.0829 
    117 H117       28.5659   35.0422    3.9906 H         1 UNK         0.0813 
    118 H118       30.1174   35.6116    4.5726 H         1 UNK         0.0813 
    119 H119       29.9819   34.9614    2.9451 H         1 UNK         0.0813 
    120 H120       31.6179   34.3118    6.2044 H         1 UNK         0.3038 
    121 H121       33.7801   34.2934    6.6843 H         1 UNK         0.0769 
    122 H122       33.8918   35.6134    4.5631 H         1 UNK         0.0811 
    123 H123       35.3733   34.7148    4.8450 H         1 UNK         0.0811 
    124 H124       34.2170   34.1369    3.6556 H         1 UNK         0.0811 
    125 H125       32.6786   31.8758    7.1214 H         1 UNK         0.3204 
    126 H126       33.0175   29.7250    7.5538 H         1 UNK         0.0748 
    127 H127       35.3395   28.8847    7.9308 H         1 UNK         0.0771 
    128 H128       36.0093   30.3374    7.1911 H         1 UNK         0.0771 
    129 H129       35.0914   30.4467    8.6845 H         1 UNK         0.0771 
    130 H130       35.7532   28.9722    5.6606 H         1 UNK         0.2980 
    131 H131       34.0844   28.0687    3.3639 H         1 UNK         0.0545 
    132 H132       35.7732   30.7924    3.9581 H         1 UNK         0.3459 
    133 H133       36.5625   30.9266    2.4065 H         1 UNK         0.3459 
    134 H134       36.7496   26.8696    4.2467 H         1 UNK         0.0616 
    135 H135       35.7537   26.3000    2.9396 H         1 UNK         0.0616 
    136 H136       32.5545   25.1201    5.2608 H         1 UNK         0.0634 
    137 H137       32.7782   26.5833    4.3627 H         1 UNK         0.0634 
@<TRIPOS>BOND
     1    1    2 1    
     2    1   72 1    
     3    1   73 1    
     4    1   74 1    
     5    2    3 2    
     6    2    4 am   BACKBONE|DICT|INTERRES
     7    4    5 1    
     8    4   75 1    
     9    5    6 1    
    10    5   35 1    
    11    5   76 1    
    12    6    7 1    
    13    6   77 1    
    14    6   78 1    
    15    7    8 1    
    16    8    9 1    
    17    8   79 1    
    18    8   80 1    
    19    9   10 ar   
    20    9   14 ar   
    21   10   11 ar   
    22   10   81 1    
    23   11   12 ar   
    24   11   71 1    
    25   12   13 ar   
    26   12   82 1    
    27   13   14 ar   
    28   13   15 1    
    29   14   83 1    
    30   15   16 1    
    31   15   84 1    
    32   15   85 1    
    33   16   17 1    
    34   17   18 1    
    35   17   86 1    
    36   17   87 1    
    37   18   19 1    
    38   18   37 1    
    39   18   88 1    
    40   19   20 am   BACKBONE|DICT|INTERRES
    41   19   89 1    
    42   20   21 2    
    43   20   22 1    
    44   22   23 1    
    45   22   24 1    
    46   22   90 1    
    47   23   91 1    
    48   23   92 1    
    49   23   93 1    
    50   24   25 am   BACKBONE|DICT|INTERRES
    51   24   94 1    
    52   25   26 2    
    53   25   27 1    
    54   27   28 1    
    55   27   29 1    
    56   27   95 1    
    57   28   96 1    
    58   28   97 1    
    59   28   98 1    
    60   29   30 am   BACKBONE|DICT|INTERRES
    61   29   99 1    
    62   30   31 2    
    63   30   32 1    
    64   32   33 1    
    65   32   34 1    
    66   32  100 1    
    67   33  101 1    
    68   33  102 1    
    69   33  103 1    
    70   34   35 am   BACKBONE|DICT|INTERRES
    71   34  104 1    
    72   35   36 2    
    73   37   38 2    
    74   37   39 am   BACKBONE|DICT|INTERRES
    75   39   40 1    
    76   39  105 1    
    77   40   41 1    
    78   40   42 1    
    79   40  106 1    
    80   41  107 1    
    81   41  108 1    
    82   41  109 1    
    83   42   43 2    
    84   42   44 am   BACKBONE|DICT|INTERRES
    85   44   45 1    
    86   44  110 1    
    87   45   46 1    
    88   45   47 1    
    89   45  111 1    
    90   46  112 1    
    91   46  113 1    
    92   46  114 1    
    93   47   48 2    
    94   47   49 am   BACKBONE|DICT|INTERRES
    95   49   50 1    
    96   49  115 1    
    97   50   51 1    
    98   50   52 1    
    99   50  116 1    
   100   51  117 1    
   101   51  118 1    
   102   51  119 1    
   103   52   53 2    
   104   52   54 am   BACKBONE|DICT|INTERRES
   105   54   55 1    
   106   54  120 1    
   107   55   56 1    
   108   55   57 1    
   109   55  121 1    
   110   56  122 1    
   111   56  123 1    
   112   56  124 1    
   113   57   58 2    
   114   57   59 am   BACKBONE|DICT|INTERRES
   115   59   60 1    
   116   59  125 1    
   117   60   61 1    
   118   60   62 1    
   119   60  126 1    
   120   61  127 1    
   121   61  128 1    
   122   61  129 1    
   123   62   63 2    
   124   62   64 am   BACKBONE|DICT|INTERRES
   125   64   65 1    
   126   64  130 1    
   127   65   66 1    
   128   65   69 1    
   129   65  131 1    
   130   66   67 am   BACKBONE|DICT|INTERRES
   131   66   68 2    
   132   67  132 1    
   133   67  133 1    
   134   69   70 1    
   135   69  134 1    
   136   69  135 1    
   137   70   71 1    
   138   71  136 1    
   139   71  137 1    
@<TRIPOS>SUBSTRUCTURE
     1 UNK         1 GROUP             0       ****    0 ROOT    
