@<TRIPOS>MOLECULE
3R136
137   139    1
SMALL
USER_CHARGES


@<TRIPOS>ATOM
      1 CA         28.3126   21.7547   -0.4469 C.3       0 UNK        -0.1979 
      2 C          28.8414   23.0369   -1.0714 C.2       0 UNK         0.4864 
      3 O          28.3518   23.4517   -2.1224 O.2       0 UNK        -0.5359 
      4 N          29.8472   23.6558   -0.4396 N.am      1 UNK        -0.4318 
      5 CA         30.5085   24.8812   -0.9035 C.3       1 UNK         0.0824 
      6 C6         31.7876   25.1906   -0.0885 C.3       12 UNK        -0.0944 
      7 S7         33.0156   23.8464   -0.1467 S.3       12 UNK        -0.2672 
      8 C8         33.9193   24.1205    1.4196 C.3       12 UNK         0.0333 
      9 C9         33.1219   23.8392    2.6954 C.ar      12 UNK        -0.0807 
     10 C10        33.4765   24.5041    3.8753 C.ar      12 UNK        -0.0894 
     11 C11        32.7955   24.2557    5.0713 C.ar      12 UNK        -0.0804 
     12 C12        31.7384   23.3426    5.0803 C.ar      12 UNK        -0.0824 
     13 C13        31.3798   22.6588    3.9161 C.ar      12 UNK        -0.0762 
     14 C14        32.0808   22.9019    2.7317 C.ar      12 UNK        -0.0782 
     15 C15        30.2609   21.6271    3.9495 C.3       12 UNK         0.0230 
     16 S16        28.7640   22.1960    3.0850 S.3       12 UNK        -0.2608 
     17 C17        28.2493   23.6316    4.0891 C.3       12 UNK        -0.0989 
     18 CA         28.2473   24.9456    3.2587 C.3       5 UNK         0.0716 
     19 N          27.3807   24.9094    2.0733 N.am      5 UNK        -0.4135 
     20 C          26.0672   24.6521    2.0330 C.2       4 UNK         0.5031 
     21 O          25.3735   24.4230    3.0260 O.2       4 UNK        -0.5229 
     22 CA         25.4369   24.6361    0.6263 C.3       4 UNK         0.0329 
     23 CB         23.9862   24.1079    0.6213 C.3       4 UNK        -0.2001 
     24 N          25.5208   25.9317   -0.0571 N.am      4 UNK        -0.4303 
     25 C          24.9843   27.0990    0.3280 C.2       3 UNK         0.5044 
     26 O          24.3438   27.2560    1.3684 O.2       3 UNK        -0.5152 
     27 CA         25.1964   28.2844   -0.6331 C.3       3 UNK         0.0319 
     28 CB         24.5717   29.5952   -0.1173 C.3       3 UNK        -0.2001 
     29 N          26.6233   28.4963   -0.8837 N.am      3 UNK        -0.4354 
     30 C          27.3166   27.9398   -1.8862 C.2       2 UNK         0.4964 
     31 O          26.8048   27.2028   -2.7306 O.2       2 UNK        -0.5047 
     32 CA         28.8343   28.2096   -1.9676 C.3       2 UNK         0.0288 
     33 CB         29.3570   29.2804   -0.9847 C.3       2 UNK        -0.2113 
     34 N          29.6197   26.9744   -1.8404 N.am      2 UNK        -0.4145 
     35 C          29.5520   26.0870   -0.8366 C.2       1 UNK         0.5006 
     36 O          28.8095   26.2053    0.1409 O.2       1 UNK        -0.5103 
     37 C          27.9913   26.2111    4.1031 C.2       5 UNK         0.5055 
     38 O          28.0401   26.1604    5.3337 O.2       5 UNK        -0.5220 
     39 N          27.7391   27.3330    3.4200 N.am      6 UNK        -0.4450 
     40 CA         27.5204   28.6584    3.9860 C.3       6 UNK         0.0367 
     41 CB         26.0688   28.7754    4.4871 C.3       6 UNK        -0.1929 
     42 C          27.7877   29.6711    2.8639 C.2       6 UNK         0.5070 
     43 O          27.4069   29.3930    1.7286 O.2       6 UNK        -0.5237 
     44 N          28.4085   30.8271    3.1123 N.am      7 UNK        -0.4739 
     45 CA         29.1283   31.2789    4.3006 C.3       7 UNK         0.0276 
     46 CB         28.1633   31.8984    5.3253 C.3       7 UNK        -0.1927 
     47 C          30.1526   32.3096    3.8109 C.2       7 UNK         0.5013 
     48 O          29.9184   32.9456    2.7783 O.2       7 UNK        -0.5193 
     49 N          31.2867   32.4190    4.5146 N.am      8 UNK        -0.4253 
     50 CA         32.4885   33.2048    4.1905 C.3       8 UNK         0.0242 
     51 CB         32.1905   34.7137    4.0812 C.3       8 UNK        -0.2000 
     52 C          33.2399   32.6776    2.9542 C.2       8 UNK         0.4948 
     53 O          34.4272   32.3702    3.0573 O.2       8 UNK        -0.5275 
     54 N          32.5299   32.5432    1.8259 N.am      9 UNK        -0.4246 
     55 CA         33.0033   31.9135    0.5908 C.3       9 UNK         0.0261 
     56 CB         32.0106   32.2072   -0.5457 C.3       9 UNK        -0.1959 
     57 C          33.2181   30.3980    0.7501 C.2       9 UNK         0.5033 
     58 O          34.1762   29.8634    0.1913 O.2       9 UNK        -0.5390 
     59 N          32.3379   29.7448    1.5238 N.am      10 UNK        -0.4215 
     60 CA         32.4939   28.3598    1.9701 C.3       10 UNK         0.0240 
     61 CB         31.1394   27.8008    2.4481 C.3       10 UNK        -0.1982 
     62 C          33.5519   28.2730    3.0783 C.2       10 UNK         0.4970 
     63 O          34.6132   27.6846    2.8729 O.2       10 UNK        -0.4916 
     64 N          33.2302   28.8820    4.2220 N.am      11 UNK        -0.4279 
     65 CA         34.0332   28.9375    5.4432 C.3       11 UNK         0.1003 
     66 C          33.4421   29.9872    6.4211 C.2       11 UNK         0.5709 
     67 N          34.1966   30.3895    7.4337 N.am      11 UNK        -0.7358 
     68 O          32.3070   30.4422    6.2702 O.2       11 UNK        -0.4999 
     69 C69        34.2325   27.5433    6.1038 C.3       12 UNK        -0.0954 
     70 S70        32.6770   26.6556    6.4743 S.3       12 UNK        -0.2268 
     71 C71        33.2274   24.9251    6.3693 C.3       12 UNK         0.0203 
     72 H72        29.0662   21.2750    0.1773 H         1 UNK         0.0888 
     73 H73        27.4386   21.9620    0.1691 H         1 UNK         0.0888 
     74 H74        28.0236   21.0459   -1.2225 H         1 UNK         0.0888 
     75 H75        30.1940   23.2789    0.4295 H         1 UNK         0.3017 
     76 H76        30.7925   24.7242   -1.9464 H         1 UNK         0.0873 
     77 H77        32.2713   26.0940   -0.4643 H         1 UNK         0.0745 
     78 H78        31.5299   25.3848    0.9534 H         1 UNK         0.0745 
     79 H79        34.2838   25.1493    1.4273 H         1 UNK         0.0705 
     80 H80        34.8025   23.4807    1.4222 H         1 UNK         0.0705 
     81 H81        34.2982   25.2067    3.8679 H         1 UNK         0.1334 
     82 H82        31.2101   23.1447    6.0031 H         1 UNK         0.1417 
     83 H83        31.8145   22.3482    1.8429 H         1 UNK         0.1562 
     84 H84        30.0021   21.3639    4.9764 H         1 UNK         0.0748 
     85 H85        30.6085   20.7059    3.4797 H         1 UNK         0.0748 
     86 H86        28.9150   23.7250    4.9478 H         1 UNK         0.0940 
     87 H87        27.2623   23.4305    4.5073 H         1 UNK         0.0940 
     88 H88        29.2592   25.0724    2.8697 H         1 UNK         0.0703 
     89 H89        27.8421   25.1995    1.2113 H         1 UNK         0.3081 
     90 H90        26.0313   23.9437    0.0296 H         1 UNK         0.0719 
     91 H91        23.3191   24.7424    1.2057 H         1 UNK         0.0809 
     92 H92        23.5893   24.0474   -0.3920 H         1 UNK         0.0809 
     93 H93        23.9364   23.1058    1.0491 H         1 UNK         0.0809 
     94 H94        26.0542   25.9388   -0.9181 H         1 UNK         0.2990 
     95 H95        24.6908   28.0330   -1.5678 H         1 UNK         0.0690 
     96 H96        24.7306   30.4133   -0.8199 H         1 UNK         0.0788 
     97 H97        24.9884   29.8943    0.8447 H         1 UNK         0.0788 
     98 H98        23.4946   29.4869    0.0155 H         1 UNK         0.0788 
     99 H99        27.1227   28.9881   -0.1461 H         1 UNK         0.2993 
    100 H100       29.0095   28.5849   -2.9772 H         1 UNK         0.0949 
    101 H101       29.2876   28.9535    0.0505 H         1 UNK         0.0767 
    102 H102       30.4044   29.5084   -1.1821 H         1 UNK         0.0767 
    103 H103       28.8022   30.2149   -1.0784 H         1 UNK         0.0767 
    104 H104       30.2379   26.7754   -2.6145 H         1 UNK         0.3013 
    105 H105       27.7221   27.3111    2.4065 H         1 UNK         0.3121 
    106 H106       28.2083   28.8054    4.8179 H         1 UNK         0.0774 
    107 H107       25.8503   29.7807    4.8461 H         1 UNK         0.0815 
    108 H108       25.3547   28.5544    3.6922 H         1 UNK         0.0815 
    109 H109       25.8749   28.0866    5.3092 H         1 UNK         0.0815 
    110 H110       28.5283   31.4726    2.3402 H         1 UNK         0.2987 
    111 H111       29.6768   30.4506    4.7524 H         1 UNK         0.0949 
    112 H112       27.5546   32.6862    4.8794 H         1 UNK         0.0806 
    113 H113       27.4922   31.1539    5.7497 H         1 UNK         0.0806 
    114 H114       28.7103   32.3417    6.1586 H         1 UNK         0.0806 
    115 H115       31.4069   31.8080    5.3203 H         1 UNK         0.3010 
    116 H116       33.1590   33.0714    5.0414 H         1 UNK         0.0829 
    117 H117       31.7078   35.0870    4.9843 H         1 UNK         0.0813 
    118 H118       33.1130   35.2806    3.9493 H         1 UNK         0.0813 
    119 H119       31.5451   34.9505    3.2352 H         1 UNK         0.0813 
    120 H120       31.5523   32.8237    1.8644 H         1 UNK         0.3038 
    121 H121       33.9657   32.3596    0.3309 H         1 UNK         0.0769 
    122 H122       32.3286   31.7335   -1.4756 H         1 UNK         0.0811 
    123 H123       31.9362   33.2777   -0.7377 H         1 UNK         0.0811 
    124 H124       31.0099   31.8396   -0.3160 H         1 UNK         0.0811 
    125 H125       31.5749   30.2737    1.9154 H         1 UNK         0.3204 
    126 H126       32.8400   27.7540    1.1310 H         1 UNK         0.0748 
    127 H127       30.6773   28.4238    3.2135 H         1 UNK         0.0771 
    128 H128       30.4351   27.7168    1.6234 H         1 UNK         0.0771 
    129 H129       31.2573   26.8033    2.8746 H         1 UNK         0.0771 
    130 H130       32.3416   29.3516    4.3115 H         1 UNK         0.2980 
    131 H131       35.0129   29.3193    5.1504 H         1 UNK         0.0545 
    132 H132       33.8241   31.0670    8.0800 H         1 UNK         0.3459 
    133 H133       35.1269   30.0265    7.5704 H         1 UNK         0.3459 
    134 H134       34.8049   27.6322    7.0285 H         1 UNK         0.0616 
    135 H135       34.8440   26.9238    5.4478 H         1 UNK         0.0616 
    136 H136       34.3111   24.8610    6.4765 H         1 UNK         0.0634 
    137 H137       32.8151   24.3875    7.2244 H         1 UNK         0.0634 
@<TRIPOS>BOND
     1    1    2 1    
     2    1   72 1    
     3    1   73 1    
     4    1   74 1    
     5    2    3 2    
     6    2    4 am   BACKBONE|DICT|INTERRES
     7    4    5 1    
     8    4   75 1    
     9    5    6 1    
    10    5   35 1    
    11    5   76 1    
    12    6    7 1    
    13    6   77 1    
    14    6   78 1    
    15    7    8 1    
    16    8    9 1    
    17    8   79 1    
    18    8   80 1    
    19    9   10 ar   
    20    9   14 ar   
    21   10   11 ar   
    22   10   81 1    
    23   11   12 ar   
    24   11   71 1    
    25   12   13 ar   
    26   12   82 1    
    27   13   14 ar   
    28   13   15 1    
    29   14   83 1    
    30   15   16 1    
    31   15   84 1    
    32   15   85 1    
    33   16   17 1    
    34   17   18 1    
    35   17   86 1    
    36   17   87 1    
    37   18   19 1    
    38   18   37 1    
    39   18   88 1    
    40   19   20 am   BACKBONE|DICT|INTERRES
    41   19   89 1    
    42   20   21 2    
    43   20   22 1    
    44   22   23 1    
    45   22   24 1    
    46   22   90 1    
    47   23   91 1    
    48   23   92 1    
    49   23   93 1    
    50   24   25 am   BACKBONE|DICT|INTERRES
    51   24   94 1    
    52   25   26 2    
    53   25   27 1    
    54   27   28 1    
    55   27   29 1    
    56   27   95 1    
    57   28   96 1    
    58   28   97 1    
    59   28   98 1    
    60   29   30 am   BACKBONE|DICT|INTERRES
    61   29   99 1    
    62   30   31 2    
    63   30   32 1    
    64   32   33 1    
    65   32   34 1    
    66   32  100 1    
    67   33  101 1    
    68   33  102 1    
    69   33  103 1    
    70   34   35 am   BACKBONE|DICT|INTERRES
    71   34  104 1    
    72   35   36 2    
    73   37   38 2    
    74   37   39 am   BACKBONE|DICT|INTERRES
    75   39   40 1    
    76   39  105 1    
    77   40   41 1    
    78   40   42 1    
    79   40  106 1    
    80   41  107 1    
    81   41  108 1    
    82   41  109 1    
    83   42   43 2    
    84   42   44 am   BACKBONE|DICT|INTERRES
    85   44   45 1    
    86   44  110 1    
    87   45   46 1    
    88   45   47 1    
    89   45  111 1    
    90   46  112 1    
    91   46  113 1    
    92   46  114 1    
    93   47   48 2    
    94   47   49 am   BACKBONE|DICT|INTERRES
    95   49   50 1    
    96   49  115 1    
    97   50   51 1    
    98   50   52 1    
    99   50  116 1    
   100   51  117 1    
   101   51  118 1    
   102   51  119 1    
   103   52   53 2    
   104   52   54 am   BACKBONE|DICT|INTERRES
   105   54   55 1    
   106   54  120 1    
   107   55   56 1    
   108   55   57 1    
   109   55  121 1    
   110   56  122 1    
   111   56  123 1    
   112   56  124 1    
   113   57   58 2    
   114   57   59 am   BACKBONE|DICT|INTERRES
   115   59   60 1    
   116   59  125 1    
   117   60   61 1    
   118   60   62 1    
   119   60  126 1    
   120   61  127 1    
   121   61  128 1    
   122   61  129 1    
   123   62   63 2    
   124   62   64 am   BACKBONE|DICT|INTERRES
   125   64   65 1    
   126   64  130 1    
   127   65   66 1    
   128   65   69 1    
   129   65  131 1    
   130   66   67 am   BACKBONE|DICT|INTERRES
   131   66   68 2    
   132   67  132 1    
   133   67  133 1    
   134   69   70 1    
   135   69  134 1    
   136   69  135 1    
   137   70   71 1    
   138   71  136 1    
   139   71  137 1    
@<TRIPOS>SUBSTRUCTURE
     1 UNK         1 GROUP             0       ****    0 ROOT    
