@<TRIPOS>MOLECULE
3R136
137   139    1
SMALL
USER_CHARGES


@<TRIPOS>ATOM
      1 CA         30.6090   21.2326    7.1057 C.3       0 UNK        -0.1979 
      2 C          30.7048   20.8213    5.6437 C.2       0 UNK         0.4864 
      3 O          31.4882   19.9316    5.3088 O.2       0 UNK        -0.5359 
      4 N          29.9125   21.4590    4.7766 N.am      1 UNK        -0.4318 
      5 CA         29.8184   21.1916    3.3425 C.3       1 UNK         0.0824 
      6 C6         31.0449   21.7224    2.5494 C.3       12 UNK        -0.0944 
      7 S7         31.2924   20.8428    0.9627 S.3       12 UNK        -0.2672 
      8 C8         32.4766   21.9215    0.0898 C.3       12 UNK         0.0333 
      9 C9         31.9907   23.3612    0.0310 C.ar      12 UNK        -0.0807 
     10 C10        32.6363   24.3461    0.7843 C.ar      12 UNK        -0.0894 
     11 C11        32.1339   25.6483    0.8253 C.ar      12 UNK        -0.0804 
     12 C12        30.9874   25.9650    0.0939 C.ar      12 UNK        -0.0824 
     13 C13        30.3515   24.9968   -0.6889 C.ar      12 UNK        -0.0762 
     14 C14        30.8626   23.6965   -0.7242 C.ar      12 UNK        -0.0782 
     15 C15        29.0881   25.3524   -1.4549 C.3       12 UNK         0.0230 
     16 S16        29.4071   26.6259   -2.7066 S.3       12 UNK        -0.2608 
     17 C17        27.9180   27.6786   -2.5424 C.3       12 UNK        -0.0989 
     18 CA         28.0503   28.9388   -1.6364 C.3       5 UNK         0.0716 
     19 N          27.7941   28.6478   -0.2166 N.am      5 UNK        -0.4135 
     20 C          27.3219   29.5553    0.6499 C.2       4 UNK         0.5031 
     21 O          27.0336   30.7065    0.3175 O.2       4 UNK        -0.5229 
     22 CA         27.1458   29.1261    2.1231 C.3       4 UNK         0.0329 
     23 CB         26.4062   30.1912    2.9560 C.3       4 UNK        -0.2001 
     24 N          26.4372   27.8575    2.2999 N.am      4 UNK        -0.4303 
     25 C          26.9372   26.6315    2.1134 C.2       3 UNK         0.5044 
     26 O          28.0642   26.4289    1.6608 O.2       3 UNK        -0.5152 
     27 CA         26.0323   25.4652    2.5614 C.3       3 UNK         0.0319 
     28 CB         24.5547   25.6584    2.1479 C.3       3 UNK        -0.2001 
     29 N          26.5146   24.1403    2.1557 N.am      3 UNK        -0.4354 
     30 C          26.6005   23.6327    0.9198 C.2       2 UNK         0.4964 
     31 O          26.2969   24.2561   -0.0989 O.2       2 UNK        -0.5047 
     32 CA         27.0481   22.1564    0.8094 C.3       2 UNK         0.0288 
     33 CB         27.1883   21.6875   -0.6520 C.3       2 UNK        -0.2113 
     34 N          28.2896   21.8285    1.5205 N.am      2 UNK        -0.4145 
     35 C          28.4564   21.7237    2.8451 C.2       1 UNK         0.5006 
     36 O          27.5753   22.0074    3.6634 O.2       1 UNK        -0.5103 
     37 C          29.3673   29.7199   -1.8640 C.2       5 UNK         0.5055 
     38 O          29.5440   30.2932   -2.9409 O.2       5 UNK        -0.5220 
     39 N          30.2743   29.7088   -0.8778 N.am      6 UNK        -0.4450 
     40 CA         31.6348   30.2308   -0.9629 C.3       6 UNK         0.0367 
     41 CB         32.5202   29.2284   -1.7360 C.3       6 UNK        -0.1929 
     42 C          32.1714   30.4932    0.4526 C.2       6 UNK         0.5070 
     43 O          31.4268   30.3564    1.4284 O.2       6 UNK        -0.5237 
     44 N          33.4597   30.8612    0.5287 N.am      7 UNK        -0.4739 
     45 CA         34.2585   31.0907    1.7425 C.3       7 UNK         0.0276 
     46 CB         34.4814   29.7667    2.5041 C.3       7 UNK        -0.1927 
     47 C          33.6879   32.1971    2.6467 C.2       7 UNK         0.5013 
     48 O          33.6520   32.0360    3.8664 O.2       7 UNK        -0.5193 
     49 N          33.2011   33.2843    2.0282 N.am      8 UNK        -0.4253 
     50 CA         32.5425   34.4324    2.6717 C.3       8 UNK         0.0242 
     51 CB         33.5741   35.2793    3.4478 C.3       8 UNK        -0.2000 
     52 C          31.3300   34.0299    3.5407 C.2       8 UNK         0.4948 
     53 O          31.0798   34.6536    4.5730 O.2       8 UNK        -0.5275 
     54 N          30.6245   32.9731    3.1079 N.am      9 UNK        -0.4246 
     55 CA         29.4852   32.3161    3.7539 C.3       9 UNK         0.0261 
     56 CB         28.3207   33.3028    3.9990 C.3       9 UNK        -0.1959 
     57 C          29.8361   31.5005    5.0144 C.2       9 UNK         0.5033 
     58 O          28.9129   31.0263    5.6792 O.2       9 UNK        -0.5390 
     59 N          31.1294   31.2894    5.3159 N.am      10 UNK        -0.4215 
     60 CA         31.5879   30.5185    6.4822 C.3       10 UNK         0.0240 
     61 CB         33.1125   30.6415    6.6288 C.3       10 UNK        -0.1982 
     62 C          31.1745   29.0355    6.4568 C.2       10 UNK         0.4970 
     63 O          31.0344   28.4342    7.5226 O.2       10 UNK        -0.4916 
     64 N          30.9665   28.4849    5.2544 N.am      11 UNK        -0.4279 
     65 CA         30.4116   27.1414    5.0345 C.3       11 UNK         0.1003 
     66 C          28.8791   27.0309    5.2926 C.2       11 UNK         0.5709 
     67 N          28.1527   28.1158    5.5425 N.am      11 UNK        -0.7358 
     68 O          28.3381   25.9283    5.2879 O.2       11 UNK        -0.4999 
     69 C69        30.7952   26.5927    3.6370 C.3       12 UNK        -0.0954 
     70 S70        32.5991   26.3958    3.4530 S.3       12 UNK        -0.2268 
     71 C71        32.8199   26.7061    1.6745 C.3       12 UNK         0.0203 
     72 H72        31.5786   21.5795    7.4620 H         1 UNK         0.0888 
     73 H73        29.8862   22.0344    7.2570 H         1 UNK         0.0888 
     74 H74        30.3053   20.3824    7.7159 H         1 UNK         0.0888 
     75 H75        29.2295   22.1307    5.1063 H         1 UNK         0.3017 
     76 H76        29.7729   20.1062    3.2280 H         1 UNK         0.0873 
     77 H77        30.9508   22.7982    2.3966 H         1 UNK         0.0745 
     78 H78        31.9617   21.5868    3.1248 H         1 UNK         0.0745 
     79 H79        33.4458   21.8575    0.5869 H         1 UNK         0.0705 
     80 H80        32.6241   21.5453   -0.9234 H         1 UNK         0.0705 
     81 H81        33.5073   24.0934    1.3736 H         1 UNK         0.1334 
     82 H82        30.5810   26.9650    0.1364 H         1 UNK         0.1417 
     83 H83        30.3647   22.9342   -1.3073 H         1 UNK         0.1562 
     84 H84        28.3442   25.7101   -0.7475 H         1 UNK         0.0748 
     85 H85        28.6545   24.4774   -1.9404 H         1 UNK         0.0748 
     86 H86        27.0656   27.0714   -2.2321 H         1 UNK         0.0940 
     87 H87        27.6700   28.0071   -3.5534 H         1 UNK         0.0940 
     88 H88        27.2571   29.6150   -1.9639 H         1 UNK         0.0703 
     89 H89        28.0098   27.7178    0.1299 H         1 UNK         0.3081 
     90 H90        28.1511   29.0195    2.5368 H         1 UNK         0.0719 
     91 H91        26.8461   31.1777    2.8247 H         1 UNK         0.0809 
     92 H92        25.3581   30.2725    2.6659 H         1 UNK         0.0809 
     93 H93        26.4453   29.9629    4.0212 H         1 UNK         0.0809 
     94 H94        25.4921   27.9298    2.6466 H         1 UNK         0.2990 
     95 H95        26.0710   25.4612    3.6516 H         1 UNK         0.0690 
     96 H96        23.9547   24.7866    2.4095 H         1 UNK         0.0788 
     97 H97        24.4518   25.8216    1.0743 H         1 UNK         0.0788 
     98 H98        24.1024   26.5117    2.6537 H         1 UNK         0.0788 
     99 H99        26.8241   23.5355    2.9129 H         1 UNK         0.2993 
    100 H100       26.2474   21.5672    1.2617 H         1 UNK         0.0949 
    101 H101       27.4203   20.6237   -0.7075 H         1 UNK         0.0767 
    102 H102       26.2610   21.8412   -1.2058 H         1 UNK         0.0767 
    103 H103       27.9753   22.2302   -1.1752 H         1 UNK         0.0767 
    104 H104       29.0902   21.6076    0.9420 H         1 UNK         0.3013 
    105 H105       30.0328   29.3214    0.0243 H         1 UNK         0.3121 
    106 H106       31.6164   31.1864   -1.4908 H         1 UNK         0.0774 
    107 H107       32.6111   28.2801   -1.2049 H         1 UNK         0.0815 
    108 H108       33.5274   29.6146   -1.8931 H         1 UNK         0.0815 
    109 H109       32.1113   29.0131   -2.7233 H         1 UNK         0.0815 
    110 H110       33.9670   30.9637   -0.3399 H         1 UNK         0.2987 
    111 H111       35.2352   31.4475    1.4115 H         1 UNK         0.0949 
    112 H112       33.5526   29.3838    2.9279 H         1 UNK         0.0806 
    113 H113       34.9000   28.9994    1.8537 H         1 UNK         0.0806 
    114 H114       35.1796   29.9032    3.3309 H         1 UNK         0.0806 
    115 H115       33.2581   33.3146    1.0194 H         1 UNK         0.3010 
    116 H116       32.1435   35.0521    1.8671 H         1 UNK         0.0829 
    117 H117       33.9748   34.7399    4.3069 H         1 UNK         0.0813 
    118 H118       34.4113   35.5665    2.8119 H         1 UNK         0.0813 
    119 H119       33.1243   36.1995    3.8229 H         1 UNK         0.0813 
    120 H120       30.9602   32.5014    2.2770 H         1 UNK         0.3038 
    121 H121       29.1425   31.5789    3.0274 H         1 UNK         0.0769 
    122 H122       27.4381   32.7897    4.3816 H         1 UNK         0.0811 
    123 H123       28.5771   34.0657    4.7336 H         1 UNK         0.0811 
    124 H124       28.0275   33.8064    3.0780 H         1 UNK         0.0811 
    125 H125       31.8541   31.6885    4.7253 H         1 UNK         0.3204 
    126 H126       31.1276   30.9660    7.3655 H         1 UNK         0.0748 
    127 H127       33.4583   30.1486    7.5384 H         1 UNK         0.0771 
    128 H128       33.6358   30.1797    5.7905 H         1 UNK         0.0771 
    129 H129       33.4245   31.6846    6.6867 H         1 UNK         0.0771 
    130 H130       31.1169   29.0468    4.4304 H         1 UNK         0.2980 
    131 H131       30.8679   26.4783    5.7720 H         1 UNK         0.0545 
    132 H132       28.5703   29.0385    5.5885 H         1 UNK         0.3459 
    133 H133       27.1699   28.0068    5.7289 H         1 UNK         0.3459 
    134 H134       30.3400   25.6166    3.4569 H         1 UNK         0.0616 
    135 H135       30.4175   27.2558    2.8568 H         1 UNK         0.0616 
    136 H136       33.8862   26.7147    1.4460 H         1 UNK         0.0634 
    137 H137       32.4439   27.7006    1.4351 H         1 UNK         0.0634 
@<TRIPOS>BOND
     1    1    2 1    
     2    1   72 1    
     3    1   73 1    
     4    1   74 1    
     5    2    3 2    
     6    2    4 am   BACKBONE|DICT|INTERRES
     7    4    5 1    
     8    4   75 1    
     9    5    6 1    
    10    5   35 1    
    11    5   76 1    
    12    6    7 1    
    13    6   77 1    
    14    6   78 1    
    15    7    8 1    
    16    8    9 1    
    17    8   79 1    
    18    8   80 1    
    19    9   10 ar   
    20    9   14 ar   
    21   10   11 ar   
    22   10   81 1    
    23   11   12 ar   
    24   11   71 1    
    25   12   13 ar   
    26   12   82 1    
    27   13   14 ar   
    28   13   15 1    
    29   14   83 1    
    30   15   16 1    
    31   15   84 1    
    32   15   85 1    
    33   16   17 1    
    34   17   18 1    
    35   17   86 1    
    36   17   87 1    
    37   18   19 1    
    38   18   37 1    
    39   18   88 1    
    40   19   20 am   BACKBONE|DICT|INTERRES
    41   19   89 1    
    42   20   21 2    
    43   20   22 1    
    44   22   23 1    
    45   22   24 1    
    46   22   90 1    
    47   23   91 1    
    48   23   92 1    
    49   23   93 1    
    50   24   25 am   BACKBONE|DICT|INTERRES
    51   24   94 1    
    52   25   26 2    
    53   25   27 1    
    54   27   28 1    
    55   27   29 1    
    56   27   95 1    
    57   28   96 1    
    58   28   97 1    
    59   28   98 1    
    60   29   30 am   BACKBONE|DICT|INTERRES
    61   29   99 1    
    62   30   31 2    
    63   30   32 1    
    64   32   33 1    
    65   32   34 1    
    66   32  100 1    
    67   33  101 1    
    68   33  102 1    
    69   33  103 1    
    70   34   35 am   BACKBONE|DICT|INTERRES
    71   34  104 1    
    72   35   36 2    
    73   37   38 2    
    74   37   39 am   BACKBONE|DICT|INTERRES
    75   39   40 1    
    76   39  105 1    
    77   40   41 1    
    78   40   42 1    
    79   40  106 1    
    80   41  107 1    
    81   41  108 1    
    82   41  109 1    
    83   42   43 2    
    84   42   44 am   BACKBONE|DICT|INTERRES
    85   44   45 1    
    86   44  110 1    
    87   45   46 1    
    88   45   47 1    
    89   45  111 1    
    90   46  112 1    
    91   46  113 1    
    92   46  114 1    
    93   47   48 2    
    94   47   49 am   BACKBONE|DICT|INTERRES
    95   49   50 1    
    96   49  115 1    
    97   50   51 1    
    98   50   52 1    
    99   50  116 1    
   100   51  117 1    
   101   51  118 1    
   102   51  119 1    
   103   52   53 2    
   104   52   54 am   BACKBONE|DICT|INTERRES
   105   54   55 1    
   106   54  120 1    
   107   55   56 1    
   108   55   57 1    
   109   55  121 1    
   110   56  122 1    
   111   56  123 1    
   112   56  124 1    
   113   57   58 2    
   114   57   59 am   BACKBONE|DICT|INTERRES
   115   59   60 1    
   116   59  125 1    
   117   60   61 1    
   118   60   62 1    
   119   60  126 1    
   120   61  127 1    
   121   61  128 1    
   122   61  129 1    
   123   62   63 2    
   124   62   64 am   BACKBONE|DICT|INTERRES
   125   64   65 1    
   126   64  130 1    
   127   65   66 1    
   128   65   69 1    
   129   65  131 1    
   130   66   67 am   BACKBONE|DICT|INTERRES
   131   66   68 2    
   132   67  132 1    
   133   67  133 1    
   134   69   70 1    
   135   69  134 1    
   136   69  135 1    
   137   70   71 1    
   138   71  136 1    
   139   71  137 1    
@<TRIPOS>SUBSTRUCTURE
     1 UNK         1 GROUP             0       ****    0 ROOT    
