@<TRIPOS>MOLECULE
3R136
137   139    1
SMALL
USER_CHARGES


@<TRIPOS>ATOM
      1 CA         34.5401   19.7164    1.4477 C.3       0 UNK        -0.1979 
      2 C          33.5914   20.8929    1.6193 C.2       0 UNK         0.4864 
      3 O          33.8510   21.7731    2.4408 O.2       0 UNK        -0.5359 
      4 N          32.4987   20.9217    0.8449 N.am      1 UNK        -0.4318 
      5 CA         31.4520   21.9525    0.8649 C.3       1 UNK         0.0824 
      6 C6         30.1133   21.4137    0.2884 C.3       12 UNK        -0.0944 
      7 S7         29.5002   19.9585    1.2121 S.3       12 UNK        -0.2672 
      8 C8         27.9025   20.5379    1.8877 C.3       12 UNK         0.0333 
      9 C9         27.9919   21.8145    2.7215 C.ar      12 UNK        -0.0807 
     10 C10        29.0655   22.0465    3.5875 C.ar      12 UNK        -0.0894 
     11 C11        29.1668   23.2489    4.2909 C.ar      12 UNK        -0.0804 
     12 C12        28.1595   24.2095    4.1652 C.ar      12 UNK        -0.0824 
     13 C13        27.0580   23.9747    3.3360 C.ar      12 UNK        -0.0762 
     14 C14        26.9814   22.7759    2.6189 C.ar      12 UNK        -0.0782 
     15 C15        25.9526   25.0146    3.2130 C.3       12 UNK         0.0230 
     16 S16        25.8229   25.6510    1.5136 S.3       12 UNK        -0.2608 
     17 C17        24.7952   27.1388    1.7656 C.3       12 UNK        -0.0989 
     18 CA         25.6618   28.4176    1.8727 C.3       5 UNK         0.0716 
     19 N          26.5510   28.5680    0.7165 N.am      5 UNK        -0.4135 
     20 C          27.4008   29.5734    0.4811 C.2       4 UNK         0.5031 
     21 O          27.4590   30.6137    1.1400 O.2       4 UNK        -0.5229 
     22 CA         28.4601   29.3102   -0.5932 C.3       4 UNK         0.0329 
     23 CB         28.7329   30.5445   -1.4695 C.3       4 UNK        -0.2001 
     24 N          29.6656   28.9540    0.1463 N.am      4 UNK        -0.4303 
     25 C          29.9927   27.7003    0.4772 C.2       3 UNK         0.5044 
     26 O          29.4544   26.7004   -0.0038 O.2       3 UNK        -0.5152 
     27 CA         31.0337   27.5368    1.5964 C.3       3 UNK         0.0319 
     28 CB         30.3189   27.3249    2.9408 C.3       3 UNK        -0.2001 
     29 N          31.9233   26.4036    1.3420 N.am      3 UNK        -0.4354 
     30 C          32.8398   26.3692    0.3648 C.2       2 UNK         0.4964 
     31 O          33.0871   27.3257   -0.3711 O.2       2 UNK        -0.5047 
     32 CA         33.6302   25.0632    0.1723 C.3       2 UNK         0.0288 
     33 CB         35.0309   25.1865    0.7934 C.3       2 UNK        -0.2113 
     34 N          32.9655   23.8782    0.7209 N.am      2 UNK        -0.4145 
     35 C          31.9336   23.2384    0.1540 C.2       1 UNK         0.5006 
     36 O          31.4086   23.5990   -0.9012 O.2       1 UNK        -0.5103 
     37 C          24.8002   29.6684    2.1373 C.2       5 UNK         0.5055 
     38 O          23.9049   29.9720    1.3462 O.2       5 UNK        -0.5220 
     39 N          25.1215   30.3681    3.2366 N.am      6 UNK        -0.4450 
     40 CA         24.5346   31.6296    3.7069 C.3       6 UNK         0.0367 
     41 CB         23.0407   31.4491    4.0549 C.3       6 UNK        -0.1929 
     42 C          24.7835   32.8377    2.7770 C.2       6 UNK         0.5070 
     43 O          24.0707   33.8362    2.8944 O.2       6 UNK        -0.5237 
     44 N          25.7846   32.7497    1.8901 N.am      7 UNK        -0.4739 
     45 CA         26.1498   33.7940    0.9340 C.3       7 UNK         0.0276 
     46 CB         25.9221   33.2874   -0.5003 C.3       7 UNK        -0.1927 
     47 C          27.5970   34.2662    1.1286 C.2       7 UNK         0.5013 
     48 O          27.8089   35.4769    1.2173 O.2       7 UNK        -0.5193 
     49 N          28.5677   33.3409    1.1856 N.am      8 UNK        -0.4253 
     50 CA         29.9964   33.6678    1.2521 C.3       8 UNK         0.0242 
     51 CB         30.4854   34.2004   -0.1130 C.3       8 UNK        -0.2000 
     52 C          30.8402   32.4565    1.6693 C.2       8 UNK         0.4948 
     53 O          30.4152   31.3137    1.4913 O.2       8 UNK        -0.5275 
     54 N          32.0560   32.7452    2.1553 N.am      9 UNK        -0.4246 
     55 CA         33.1004   31.7973    2.5649 C.3       9 UNK         0.0261 
     56 CB         33.6051   30.9867    1.3471 C.3       9 UNK        -0.1959 
     57 C          32.6919   30.9197    3.7674 C.2       9 UNK         0.5033 
     58 O          31.7510   31.2565    4.4911 O.2       9 UNK        -0.5390 
     59 N          33.4420   29.8374    3.9931 N.am      10 UNK        -0.4215 
     60 CA         33.2582   28.8723    5.0707 C.3       10 UNK         0.0240 
     61 CB         33.8233   29.4321    6.3909 C.3       10 UNK        -0.1982 
     62 C          33.9729   27.5759    4.6759 C.2       10 UNK         0.4970 
     63 O          34.8719   27.6093    3.8310 O.2       10 UNK        -0.4916 
     64 N          33.5739   26.4695    5.3100 N.am      11 UNK        -0.4279 
     65 CA         34.1785   25.1395    5.1250 C.3       11 UNK         0.1003 
     66 C          35.4602   24.8972    5.9755 C.2       11 UNK         0.5709 
     67 N          35.8566   25.8037    6.8617 N.am      11 UNK        -0.7358 
     68 O          36.1177   23.8712    5.8199 O.2       11 UNK        -0.4999 
     69 C69        33.1387   24.0090    5.3292 C.3       12 UNK        -0.0954 
     70 S70        31.7573   24.1322    4.1482 S.3       12 UNK        -0.2268 
     71 C71        30.3836   23.5114    5.1607 C.3       12 UNK         0.0203 
     72 H72        34.6437   19.1791    2.3899 H         1 UNK         0.0888 
     73 H73        34.1866   19.0136    0.6934 H         1 UNK         0.0888 
     74 H74        35.5256   20.0708    1.1469 H         1 UNK         0.0888 
     75 H75        32.3470   20.1738    0.1833 H         1 UNK         0.3017 
     76 H76        31.2724   22.2278    1.9046 H         1 UNK         0.0873 
     77 H77        29.3516   22.1957    0.2996 H         1 UNK         0.0745 
     78 H78        30.2334   21.1251   -0.7574 H         1 UNK         0.0745 
     79 H79        27.4781   19.7468    2.5069 H         1 UNK         0.0705 
     80 H80        27.2149   20.6785    1.0521 H         1 UNK         0.0705 
     81 H81        29.8474   21.3062    3.6883 H         1 UNK         0.1334 
     82 H82        28.2380   25.1405    4.7099 H         1 UNK         0.1417 
     83 H83        26.1368   22.6032    1.9653 H         1 UNK         0.1562 
     84 H84        26.1348   25.8469    3.8948 H         1 UNK         0.0748 
     85 H85        25.0003   24.5717    3.5082 H         1 UNK         0.0748 
     86 H86        24.1785   27.0090    2.6573 H         1 UNK         0.0940 
     87 H87        24.1004   27.2171    0.9268 H         1 UNK         0.0940 
     88 H88        26.3217   28.2831    2.7326 H         1 UNK         0.0703 
     89 H89        26.6232   27.7436    0.1373 H         1 UNK         0.3081 
     90 H90        28.1404   28.4924   -1.2428 H         1 UNK         0.0719 
     91 H91        29.0254   31.4116   -0.8790 H         1 UNK         0.0809 
     92 H92        29.5308   30.3488   -2.1858 H         1 UNK         0.0809 
     93 H93        27.8452   30.8190   -2.0399 H         1 UNK         0.0809 
     94 H94        30.0895   29.7294    0.6573 H         1 UNK         0.2990 
     95 H95        31.6395   28.4415    1.6640 H         1 UNK         0.0690 
     96 H96        31.0269   27.1602    3.7509 H         1 UNK         0.0788 
     97 H97        29.6488   26.4648    2.9063 H         1 UNK         0.0788 
     98 H98        29.7189   28.1975    3.2034 H         1 UNK         0.0788 
     99 H99        31.7675   25.5690    1.8887 H         1 UNK         0.2993 
    100 H100       33.7494   24.9158   -0.9035 H         1 UNK         0.0949 
    101 H101       34.9812   25.3698    1.8662 H         1 UNK         0.0767 
    102 H102       35.6201   24.2835    0.6319 H         1 UNK         0.0767 
    103 H103       35.5818   26.0170    0.3496 H         1 UNK         0.0767 
    104 H104       33.3700   23.4570    1.5537 H         1 UNK         0.3013 
    105 H105       25.9034   30.0378    3.7859 H         1 UNK         0.3121 
    106 H106       25.0551   31.8682    4.6355 H         1 UNK         0.0774 
    107 H107       22.6466   32.3309    4.5614 H         1 UNK         0.0815 
    108 H108       22.4330   31.2908    3.1636 H         1 UNK         0.0815 
    109 H109       22.8872   30.6010    4.7220 H         1 UNK         0.0815 
    110 H110       26.3324   31.8927    1.8404 H         1 UNK         0.2987 
    111 H111       25.5143   34.6716    1.0719 H         1 UNK         0.0949 
    112 H112       26.1980   34.0474   -1.2324 H         1 UNK         0.0806 
    113 H113       26.5112   32.3971   -0.7153 H         1 UNK         0.0806 
    114 H114       24.8738   33.0397   -0.6676 H         1 UNK         0.0806 
    115 H115       28.3413   32.3475    1.1612 H         1 UNK         0.3010 
    116 H116       30.1341   34.4418    2.0105 H         1 UNK         0.0829 
    117 H117       29.9726   35.1190   -0.3971 H         1 UNK         0.0813 
    118 H118       31.5516   34.4292   -0.0917 H         1 UNK         0.0813 
    119 H119       30.3270   33.4713   -0.9081 H         1 UNK         0.0813 
    120 H120       32.2924   33.7195    2.2808 H         1 UNK         0.3038 
    121 H121       33.9324   32.4091    2.9169 H         1 UNK         0.0769 
    122 H122       32.8553   30.2866    0.9802 H         1 UNK         0.0811 
    123 H123       34.5027   30.4142    1.5819 H         1 UNK         0.0811 
    124 H124       33.8654   31.6472    0.5199 H         1 UNK         0.0811 
    125 H125       34.1886   29.5927    3.3531 H         1 UNK         0.3204 
    126 H126       32.1923   28.6664    5.1863 H         1 UNK         0.0748 
    127 H127       33.6922   28.7233    7.2093 H         1 UNK         0.0771 
    128 H128       34.8893   29.6497    6.3117 H         1 UNK         0.0771 
    129 H129       33.3168   30.3523    6.6827 H         1 UNK         0.0771 
    130 H130       32.8376   26.5270    5.9976 H         1 UNK         0.2980 
    131 H131       34.5150   25.0666    4.0906 H         1 UNK         0.0545 
    132 H132       36.6918   25.6332    7.3994 H         1 UNK         0.3459 
    133 H133       35.3337   26.6528    6.9971 H         1 UNK         0.3459 
    134 H134       32.7542   24.0274    6.3505 H         1 UNK         0.0616 
    135 H135       33.5971   23.0283    5.1873 H         1 UNK         0.0616 
    136 H136       30.1521   24.2346    5.9442 H         1 UNK         0.0634 
    137 H137       30.6857   22.5900    5.6613 H         1 UNK         0.0634 
@<TRIPOS>BOND
     1    1    2 1    
     2    1   72 1    
     3    1   73 1    
     4    1   74 1    
     5    2    3 2    
     6    2    4 am   BACKBONE|DICT|INTERRES
     7    4    5 1    
     8    4   75 1    
     9    5    6 1    
    10    5   35 1    
    11    5   76 1    
    12    6    7 1    
    13    6   77 1    
    14    6   78 1    
    15    7    8 1    
    16    8    9 1    
    17    8   79 1    
    18    8   80 1    
    19    9   10 ar   
    20    9   14 ar   
    21   10   11 ar   
    22   10   81 1    
    23   11   12 ar   
    24   11   71 1    
    25   12   13 ar   
    26   12   82 1    
    27   13   14 ar   
    28   13   15 1    
    29   14   83 1    
    30   15   16 1    
    31   15   84 1    
    32   15   85 1    
    33   16   17 1    
    34   17   18 1    
    35   17   86 1    
    36   17   87 1    
    37   18   19 1    
    38   18   37 1    
    39   18   88 1    
    40   19   20 am   BACKBONE|DICT|INTERRES
    41   19   89 1    
    42   20   21 2    
    43   20   22 1    
    44   22   23 1    
    45   22   24 1    
    46   22   90 1    
    47   23   91 1    
    48   23   92 1    
    49   23   93 1    
    50   24   25 am   BACKBONE|DICT|INTERRES
    51   24   94 1    
    52   25   26 2    
    53   25   27 1    
    54   27   28 1    
    55   27   29 1    
    56   27   95 1    
    57   28   96 1    
    58   28   97 1    
    59   28   98 1    
    60   29   30 am   BACKBONE|DICT|INTERRES
    61   29   99 1    
    62   30   31 2    
    63   30   32 1    
    64   32   33 1    
    65   32   34 1    
    66   32  100 1    
    67   33  101 1    
    68   33  102 1    
    69   33  103 1    
    70   34   35 am   BACKBONE|DICT|INTERRES
    71   34  104 1    
    72   35   36 2    
    73   37   38 2    
    74   37   39 am   BACKBONE|DICT|INTERRES
    75   39   40 1    
    76   39  105 1    
    77   40   41 1    
    78   40   42 1    
    79   40  106 1    
    80   41  107 1    
    81   41  108 1    
    82   41  109 1    
    83   42   43 2    
    84   42   44 am   BACKBONE|DICT|INTERRES
    85   44   45 1    
    86   44  110 1    
    87   45   46 1    
    88   45   47 1    
    89   45  111 1    
    90   46  112 1    
    91   46  113 1    
    92   46  114 1    
    93   47   48 2    
    94   47   49 am   BACKBONE|DICT|INTERRES
    95   49   50 1    
    96   49  115 1    
    97   50   51 1    
    98   50   52 1    
    99   50  116 1    
   100   51  117 1    
   101   51  118 1    
   102   51  119 1    
   103   52   53 2    
   104   52   54 am   BACKBONE|DICT|INTERRES
   105   54   55 1    
   106   54  120 1    
   107   55   56 1    
   108   55   57 1    
   109   55  121 1    
   110   56  122 1    
   111   56  123 1    
   112   56  124 1    
   113   57   58 2    
   114   57   59 am   BACKBONE|DICT|INTERRES
   115   59   60 1    
   116   59  125 1    
   117   60   61 1    
   118   60   62 1    
   119   60  126 1    
   120   61  127 1    
   121   61  128 1    
   122   61  129 1    
   123   62   63 2    
   124   62   64 am   BACKBONE|DICT|INTERRES
   125   64   65 1    
   126   64  130 1    
   127   65   66 1    
   128   65   69 1    
   129   65  131 1    
   130   66   67 am   BACKBONE|DICT|INTERRES
   131   66   68 2    
   132   67  132 1    
   133   67  133 1    
   134   69   70 1    
   135   69  134 1    
   136   69  135 1    
   137   70   71 1    
   138   71  136 1    
   139   71  137 1    
@<TRIPOS>SUBSTRUCTURE
     1 UNK         1 GROUP             0       ****    0 ROOT    
