@<TRIPOS>MOLECULE
3R136
137   139    1
SMALL
USER_CHARGES


@<TRIPOS>ATOM
      1 CA         34.3439   23.9451   -3.2114 C.3       0 UNK        -0.1979 
      2 C          33.3860   24.1435   -2.0459 C.2       0 UNK         0.4864 
      3 O          33.7834   23.9732   -0.8923 O.2       0 UNK        -0.5359 
      4 N          32.1298   24.4955   -2.3386 N.am      1 UNK        -0.4318 
      5 CA         31.0852   24.7714   -1.3577 C.3       1 UNK         0.0824 
      6 C6         30.4519   23.4695   -0.7994 C.3       12 UNK        -0.0944 
      7 S7         29.5223   23.7562    0.7407 S.3       12 UNK        -0.2672 
      8 C8         30.7353   23.1997    1.9791 C.3       12 UNK         0.0333 
      9 C9         30.2897   23.5157    3.4008 C.ar      12 UNK        -0.0807 
     10 C10        31.1494   24.1885    4.2728 C.ar      12 UNK        -0.0894 
     11 C11        30.7550   24.4703    5.5838 C.ar      12 UNK        -0.0804 
     12 C12        29.4778   24.0951    6.0141 C.ar      12 UNK        -0.0824 
     13 C13        28.5991   23.4321    5.1499 C.ar      12 UNK        -0.0762 
     14 C14        29.0279   23.1200    3.8544 C.ar      12 UNK        -0.0782 
     15 C15        27.2070   23.0367    5.6409 C.3       12 UNK         0.0230 
     16 S16        25.9023   23.1575    4.3655 S.3       12 UNK        -0.2608 
     17 C17        25.5367   24.9443    4.3200 C.3       12 UNK        -0.0989 
     18 CA         26.4185   25.7261    3.2958 C.3       5 UNK         0.0716 
     19 N          25.6681   26.6263    2.4153 N.am      5 UNK        -0.4135 
     20 C          24.8479   27.6226    2.7868 C.2       4 UNK         0.5031 
     21 O          24.5115   27.8330    3.9527 O.2       4 UNK        -0.5229 
     22 CA         24.3134   28.5690    1.6892 C.3       4 UNK         0.0329 
     23 CB         24.8812   29.9859    1.8835 C.3       4 UNK        -0.2001 
     24 N          24.6138   28.1337    0.3238 N.am      4 UNK        -0.4303 
     25 C          24.0528   27.0917   -0.3044 C.2       3 UNK         0.5044 
     26 O          23.1243   26.4322    0.1632 O.2       3 UNK        -0.5152 
     27 CA         24.6487   26.6937   -1.6702 C.3       3 UNK         0.0319 
     28 CB         23.7286   27.1587   -2.8108 C.3       3 UNK        -0.2001 
     29 N          26.0124   27.1840   -1.9246 N.am      3 UNK        -0.4354 
     30 C          27.0966   26.9052   -1.1863 C.2       2 UNK         0.4964 
     31 O          27.0638   26.2580   -0.1356 O.2       2 UNK        -0.5047 
     32 CA         28.4187   27.5210   -1.6644 C.3       2 UNK         0.0288 
     33 CB         28.6207   28.9033   -1.0222 C.3       2 UNK        -0.2113 
     34 N          29.5316   26.6585   -1.2808 N.am      2 UNK        -0.4145 
     35 C          30.0441   25.6798   -2.0314 C.2       1 UNK         0.5006 
     36 O          29.7240   25.4683   -3.2054 O.2       1 UNK        -0.5103 
     37 C          27.5822   26.5194    3.9230 C.2       5 UNK         0.5055 
     38 O          27.5747   26.8218    5.1181 O.2       5 UNK        -0.5220 
     39 N          28.5347   26.8991    3.0672 N.am      6 UNK        -0.4450 
     40 CA         29.7339   27.6502    3.4107 C.3       6 UNK         0.0367 
     41 CB         29.4330   29.1576    3.3651 C.3       6 UNK        -0.1929 
     42 C          30.8236   27.2679    2.4096 C.2       6 UNK         0.5070 
     43 O          30.4980   26.9516    1.2656 O.2       6 UNK        -0.5237 
     44 N          32.0911   27.3054    2.8380 N.am      7 UNK        -0.4739 
     45 CA         33.2466   26.9901    1.9887 C.3       7 UNK         0.0276 
     46 CB         34.4999   26.8392    2.8656 C.3       7 UNK        -0.1927 
     47 C          33.4712   28.0414    0.8868 C.2       7 UNK         0.5013 
     48 O          33.8203   27.6852   -0.2389 O.2       7 UNK        -0.5193 
     49 N          33.2373   29.3095    1.2360 N.am      8 UNK        -0.4253 
     50 CA         33.2124   30.4572    0.3364 C.3       8 UNK         0.0242 
     51 CB         34.5992   31.1347    0.3191 C.3       8 UNK        -0.2000 
     52 C          32.0566   31.3549    0.7995 C.2       8 UNK         0.4948 
     53 O          30.9244   30.8776    0.8715 O.2       8 UNK        -0.5275 
     54 N          32.3475   32.6130    1.1593 N.am      9 UNK        -0.4246 
     55 CA         31.4001   33.5230    1.8177 C.3       9 UNK         0.0261 
     56 CB         31.9570   34.9552    1.7651 C.3       9 UNK        -0.1959 
     57 C          31.0864   33.1189    3.2742 C.2       9 UNK         0.5033 
     58 O          30.0642   33.5427    3.8149 O.2       9 UNK        -0.5390 
     59 N          31.9672   32.3113    3.8738 N.am      10 UNK        -0.4215 
     60 CA         31.8598   31.7087    5.1960 C.3       10 UNK         0.0240 
     61 CB         32.4007   32.6891    6.2550 C.3       10 UNK        -0.1982 
     62 C          32.6474   30.3893    5.1748 C.2       10 UNK         0.4970 
     63 O          33.2332   30.0417    4.1439 O.2       10 UNK        -0.4916 
     64 N          32.6454   29.6769    6.3055 N.am      11 UNK        -0.4279 
     65 CA         33.4507   28.4635    6.5299 C.3       11 UNK         0.1003 
     66 C          34.9403   28.7425    6.8883 C.2       11 UNK         0.5709 
     67 N          35.3537   29.9834    7.1184 N.am      11 UNK        -0.7358 
     68 O          35.7411   27.8127    6.9437 O.2       11 UNK        -0.4999 
     69 C69        32.7819   27.5283    7.5705 C.3       12 UNK        -0.0954 
     70 S70        31.2128   26.8497    6.9398 S.3       12 UNK        -0.2268 
     71 C71        31.7238   25.1510    6.5395 C.3       12 UNK         0.0203 
     72 H72        33.8581   24.1148   -4.1722 H         1 UNK         0.0888 
     73 H73        34.7370   22.9288   -3.2051 H         1 UNK         0.0888 
     74 H74        35.1824   24.6360   -3.1284 H         1 UNK         0.0888 
     75 H75        31.8411   24.6429   -3.2981 H         1 UNK         0.3017 
     76 H76        31.5455   25.3285   -0.5384 H         1 UNK         0.0873 
     77 H77        31.2248   22.7260   -0.5991 H         1 UNK         0.0745 
     78 H78        29.7878   23.0091   -1.5335 H         1 UNK         0.0745 
     79 H79        30.8862   22.1239    1.8812 H         1 UNK         0.0705 
     80 H80        31.6943   23.6747    1.7641 H         1 UNK         0.0705 
     81 H81        32.1331   24.4830    3.9333 H         1 UNK         0.1334 
     82 H82        29.1695   24.3253    7.0249 H         1 UNK         0.1417 
     83 H83        28.3713   22.5847    3.1824 H         1 UNK         0.1562 
     84 H84        26.9163   23.6404    6.5022 H         1 UNK         0.0748 
     85 H85        27.2518   22.0044    5.9899 H         1 UNK         0.0748 
     86 H86        25.5748   25.3616    5.3275 H         1 UNK         0.0940 
     87 H87        24.4864   25.0166    4.0343 H         1 UNK         0.0940 
     88 H88        26.8734   25.0018    2.6173 H         1 UNK         0.0703 
     89 H89        25.9185   26.5541    1.4333 H         1 UNK         0.3081 
     90 H90        23.2281   28.6144    1.8017 H         1 UNK         0.0719 
     91 H91        24.6379   30.3731    2.8740 H         1 UNK         0.0809 
     92 H92        25.9678   30.0022    1.7866 H         1 UNK         0.0809 
     93 H93        24.4668   30.6843    1.1562 H         1 UNK         0.0809 
     94 H94        25.3632   28.6165   -0.1492 H         1 UNK         0.2990 
     95 H95        24.6905   25.6027   -1.6896 H         1 UNK         0.0690 
     96 H96        24.0752   26.7912   -3.7769 H         1 UNK         0.0788 
     97 H97        23.6709   28.2467   -2.8645 H         1 UNK         0.0788 
     98 H98        22.7129   26.7853   -2.6716 H         1 UNK         0.0788 
     99 H99        26.1299   27.7503   -2.7532 H         1 UNK         0.2993 
    100 H100       28.3954   27.6331   -2.7507 H         1 UNK         0.0949 
    101 H101       28.6284   28.8446    0.0671 H         1 UNK         0.0767 
    102 H102       29.5660   29.3496   -1.3322 H         1 UNK         0.0767 
    103 H103       27.8266   29.5938   -1.3087 H         1 UNK         0.0767 
    104 H104       29.8410   26.7353   -0.3094 H         1 UNK         0.3013 
    105 H105       28.5081   26.5837    2.1033 H         1 UNK         0.3121 
    106 H106       30.0657   27.3678    4.4092 H         1 UNK         0.0774 
    107 H107       29.0064   29.4529    2.4062 H         1 UNK         0.0815 
    108 H108       28.7315   29.4463    4.1477 H         1 UNK         0.0815 
    109 H109       30.3392   29.7448    3.5030 H         1 UNK         0.0815 
    110 H110       32.2844   27.6107    3.7806 H         1 UNK         0.2987 
    111 H111       33.0555   26.0335    1.4963 H         1 UNK         0.0949 
    112 H112       34.3682   26.0631    3.6197 H         1 UNK         0.0806 
    113 H113       35.3633   26.5586    2.2607 H         1 UNK         0.0806 
    114 H114       34.7511   27.7688    3.3780 H         1 UNK         0.0806 
    115 H115       32.9605   29.4918    2.1953 H         1 UNK         0.3010 
    116 H116       32.9668   30.1283   -0.6757 H         1 UNK         0.0829 
    117 H117       34.6138   31.9970   -0.3488 H         1 UNK         0.0813 
    118 H118       35.3612   30.4441   -0.0432 H         1 UNK         0.0813 
    119 H119       34.9074   31.4656    1.3118 H         1 UNK         0.0813 
    120 H120       33.2971   32.9406    1.0529 H         1 UNK         0.3038 
    121 H121       30.4597   33.4997    1.2627 H         1 UNK         0.0769 
    122 H122       32.1200   35.2808    0.7375 H         1 UNK         0.0811 
    123 H123       32.9031   35.0420    2.3009 H         1 UNK         0.0811 
    124 H124       31.2600   35.6609    2.2195 H         1 UNK         0.0811 
    125 H125       32.7516   31.9648    3.3371 H         1 UNK         0.3204 
    126 H126       30.8134   31.4763    5.4049 H         1 UNK         0.0748 
    127 H127       32.2954   32.2890    7.2638 H         1 UNK         0.0771 
    128 H128       33.4566   32.9117    6.0956 H         1 UNK         0.0771 
    129 H129       31.8567   33.6337    6.2311 H         1 UNK         0.0771 
    130 H130       32.1271   30.0145    7.1030 H         1 UNK         0.2980 
    131 H131       33.4939   27.9124    5.5891 H         1 UNK         0.0545 
    132 H132       34.7116   30.7569    7.0762 H         1 UNK         0.3459 
    133 H133       36.3232   30.1439    7.3423 H         1 UNK         0.3459 
    134 H134       32.5819   28.0673    8.4980 H         1 UNK         0.0616 
    135 H135       33.4391   26.6999    7.8419 H         1 UNK         0.0616 
    136 H136       32.7252   25.1705    6.1060 H         1 UNK         0.0634 
    137 H137       31.7974   24.5722    7.4613 H         1 UNK         0.0634 
@<TRIPOS>BOND
     1    1    2 1    
     2    1   72 1    
     3    1   73 1    
     4    1   74 1    
     5    2    3 2    
     6    2    4 am   BACKBONE|DICT|INTERRES
     7    4    5 1    
     8    4   75 1    
     9    5    6 1    
    10    5   35 1    
    11    5   76 1    
    12    6    7 1    
    13    6   77 1    
    14    6   78 1    
    15    7    8 1    
    16    8    9 1    
    17    8   79 1    
    18    8   80 1    
    19    9   10 ar   
    20    9   14 ar   
    21   10   11 ar   
    22   10   81 1    
    23   11   12 ar   
    24   11   71 1    
    25   12   13 ar   
    26   12   82 1    
    27   13   14 ar   
    28   13   15 1    
    29   14   83 1    
    30   15   16 1    
    31   15   84 1    
    32   15   85 1    
    33   16   17 1    
    34   17   18 1    
    35   17   86 1    
    36   17   87 1    
    37   18   19 1    
    38   18   37 1    
    39   18   88 1    
    40   19   20 am   BACKBONE|DICT|INTERRES
    41   19   89 1    
    42   20   21 2    
    43   20   22 1    
    44   22   23 1    
    45   22   24 1    
    46   22   90 1    
    47   23   91 1    
    48   23   92 1    
    49   23   93 1    
    50   24   25 am   BACKBONE|DICT|INTERRES
    51   24   94 1    
    52   25   26 2    
    53   25   27 1    
    54   27   28 1    
    55   27   29 1    
    56   27   95 1    
    57   28   96 1    
    58   28   97 1    
    59   28   98 1    
    60   29   30 am   BACKBONE|DICT|INTERRES
    61   29   99 1    
    62   30   31 2    
    63   30   32 1    
    64   32   33 1    
    65   32   34 1    
    66   32  100 1    
    67   33  101 1    
    68   33  102 1    
    69   33  103 1    
    70   34   35 am   BACKBONE|DICT|INTERRES
    71   34  104 1    
    72   35   36 2    
    73   37   38 2    
    74   37   39 am   BACKBONE|DICT|INTERRES
    75   39   40 1    
    76   39  105 1    
    77   40   41 1    
    78   40   42 1    
    79   40  106 1    
    80   41  107 1    
    81   41  108 1    
    82   41  109 1    
    83   42   43 2    
    84   42   44 am   BACKBONE|DICT|INTERRES
    85   44   45 1    
    86   44  110 1    
    87   45   46 1    
    88   45   47 1    
    89   45  111 1    
    90   46  112 1    
    91   46  113 1    
    92   46  114 1    
    93   47   48 2    
    94   47   49 am   BACKBONE|DICT|INTERRES
    95   49   50 1    
    96   49  115 1    
    97   50   51 1    
    98   50   52 1    
    99   50  116 1    
   100   51  117 1    
   101   51  118 1    
   102   51  119 1    
   103   52   53 2    
   104   52   54 am   BACKBONE|DICT|INTERRES
   105   54   55 1    
   106   54  120 1    
   107   55   56 1    
   108   55   57 1    
   109   55  121 1    
   110   56  122 1    
   111   56  123 1    
   112   56  124 1    
   113   57   58 2    
   114   57   59 am   BACKBONE|DICT|INTERRES
   115   59   60 1    
   116   59  125 1    
   117   60   61 1    
   118   60   62 1    
   119   60  126 1    
   120   61  127 1    
   121   61  128 1    
   122   61  129 1    
   123   62   63 2    
   124   62   64 am   BACKBONE|DICT|INTERRES
   125   64   65 1    
   126   64  130 1    
   127   65   66 1    
   128   65   69 1    
   129   65  131 1    
   130   66   67 am   BACKBONE|DICT|INTERRES
   131   66   68 2    
   132   67  132 1    
   133   67  133 1    
   134   69   70 1    
   135   69  134 1    
   136   69  135 1    
   137   70   71 1    
   138   71  136 1    
   139   71  137 1    
@<TRIPOS>SUBSTRUCTURE
     1 UNK         1 GROUP             0       ****    0 ROOT    
