@<TRIPOS>MOLECULE
3R136
137   139    1
SMALL
USER_CHARGES


@<TRIPOS>ATOM
      1 CA         28.0103   19.7977    5.3994 C.3       0 UNK        -0.1979 
      2 C          28.5487   19.9684    3.9864 C.2       0 UNK         0.4864 
      3 O          28.8063   18.9737    3.3062 O.2       0 UNK        -0.5359 
      4 N          28.7283   21.2198    3.5437 N.am      1 UNK        -0.4318 
      5 CA         29.1705   21.5699    2.1914 C.3       1 UNK         0.0824 
      6 C6         29.6623   23.0381    2.1322 C.3       12 UNK        -0.0944 
      7 S7         30.5966   23.4026    0.6058 S.3       12 UNK        -0.2672 
      8 C8         31.8426   24.5860    1.1940 C.3       12 UNK         0.0333 
      9 C9         31.2533   25.9770    1.3644 C.ar      12 UNK        -0.0807 
     10 C10        30.7122   26.3686    2.5910 C.ar      12 UNK        -0.0894 
     11 C11        30.2171   27.6636    2.7662 C.ar      12 UNK        -0.0804 
     12 C12        30.2823   28.5741    1.7070 C.ar      12 UNK        -0.0824 
     13 C13        30.7810   28.1808    0.4605 C.ar      12 UNK        -0.0762 
     14 C14        31.2690   26.8809    0.2982 C.ar      12 UNK        -0.0782 
     15 C15        30.8125   29.1543   -0.7109 C.3       12 UNK         0.0230 
     16 S16        29.2230   29.2140   -1.6014 S.3       12 UNK        -0.2608 
     17 C17        28.2373   30.3198   -0.5293 C.3       12 UNK        -0.0989 
     18 CA         26.9973   29.6423    0.1136 C.3       5 UNK         0.0716 
     19 N          27.2947   28.3026    0.6377 N.am      5 UNK        -0.4135 
     20 C          26.4056   27.4322    1.1342 C.2       4 UNK         0.5031 
     21 O          25.2242   27.7027    1.3569 O.2       4 UNK        -0.5229 
     22 CA         26.9371   26.0047    1.3763 C.3       4 UNK         0.0329 
     23 CB         25.8730   25.0676    1.9835 C.3       4 UNK        -0.2001 
     24 N          27.5153   25.3971    0.1674 N.am      4 UNK        -0.4303 
     25 C          26.9385   25.2798   -1.0421 C.2       3 UNK         0.5044 
     26 O          25.8172   25.6987   -1.3297 O.2       3 UNK        -0.5152 
     27 CA         27.7512   24.5350   -2.1112 C.3       3 UNK         0.0319 
     28 CB         29.0723   25.2556   -2.4315 C.3       3 UNK        -0.2001 
     29 N          28.0146   23.1560   -1.6981 N.am      3 UNK        -0.4354 
     30 C          27.1199   22.1580   -1.7742 C.2       2 UNK         0.4964 
     31 O          25.9991   22.2764   -2.2700 O.2       2 UNK        -0.5047 
     32 CA         27.5436   20.7909   -1.2063 C.3       2 UNK         0.0288 
     33 CB         28.2246   19.9422   -2.2924 C.3       2 UNK        -0.2113 
     34 N          28.4382   20.9138   -0.0537 N.am      2 UNK        -0.4145 
     35 C          28.0472   21.3136    1.1641 C.2       1 UNK         0.5006 
     36 O          26.8712   21.5241    1.4727 O.2       1 UNK        -0.5103 
     37 C          26.3520   30.6060    1.1343 C.2       5 UNK         0.5055 
     38 O          25.6101   31.4954    0.7161 O.2       5 UNK        -0.5220 
     39 N          26.6590   30.4167    2.4295 N.am      6 UNK        -0.4450 
     40 CA         26.2224   31.2099    3.5888 C.3       6 UNK         0.0367 
     41 CB         24.7139   30.9986    3.8397 C.3       6 UNK        -0.1929 
     42 C          26.5957   32.7050    3.4511 C.2       6 UNK         0.5070 
     43 O          25.7193   33.5271    3.1849 O.2       6 UNK        -0.5237 
     44 N          27.8720   33.0833    3.5938 N.am      7 UNK        -0.4739 
     45 CA         29.0349   32.2827    3.9777 C.3       7 UNK         0.0276 
     46 CB         29.2014   32.3390    5.5081 C.3       7 UNK        -0.1927 
     47 C          30.2779   32.8284    3.2612 C.2       7 UNK         0.5013 
     48 O          30.2186   33.9052    2.6605 O.2       7 UNK        -0.5193 
     49 N          31.3794   32.0771    3.3389 N.am      8 UNK        -0.4253 
     50 CA         32.6716   32.4027    2.7410 C.3       8 UNK         0.0242 
     51 CB         32.7110   31.8758    1.2942 C.3       8 UNK        -0.2000 
     52 C          33.7796   31.7686    3.5887 C.2       8 UNK         0.4948 
     53 O          33.4836   31.0150    4.5194 O.2       8 UNK        -0.5275 
     54 N          35.0426   32.0245    3.2198 N.am      9 UNK        -0.4246 
     55 CA         36.2491   31.4764    3.8612 C.3       9 UNK         0.0261 
     56 CB         37.4932   32.0711    3.1806 C.3       9 UNK        -0.1959 
     57 C          36.3348   29.9346    3.8861 C.2       9 UNK         0.5033 
     58 O          37.0915   29.3864    4.6882 O.2       9 UNK        -0.5390 
     59 N          35.5436   29.2669    3.0350 N.am      10 UNK        -0.4215 
     60 CA         35.3217   27.8206    3.0262 C.3       10 UNK         0.0240 
     61 CB         34.5374   27.4521    1.7569 C.3       10 UNK        -0.1982 
     62 C          34.5907   27.2888    4.2766 C.2       10 UNK         0.4970 
     63 O          34.7107   26.0958    4.5595 O.2       10 UNK        -0.4916 
     64 N          33.8603   28.1537    4.9939 N.am      11 UNK        -0.4279 
     65 CA         33.1290   27.8196    6.2254 C.3       11 UNK         0.1003 
     66 C          33.3445   28.8291    7.3867 C.2       11 UNK         0.5709 
     67 N          33.7442   30.0691    7.1349 N.am      11 UNK        -0.7358 
     68 O          33.1708   28.4683    8.5488 O.2       11 UNK        -0.4999 
     69 C69        31.6271   27.5437    5.9560 C.3       12 UNK        -0.0954 
     70 S70        30.7447   28.9396    5.1718 S.3       12 UNK        -0.2268 
     71 C71        29.5789   28.0696    4.0859 C.3       12 UNK         0.0203 
     72 H72        27.8447   20.7557    5.8913 H         1 UNK         0.0888 
     73 H73        27.0630   19.2600    5.3770 H         1 UNK         0.0888 
     74 H74        28.7136   19.2245    6.0024 H         1 UNK         0.0888 
     75 H75        28.4674   21.9949    4.1357 H         1 UNK         0.3017 
     76 H76        30.0130   20.9173    1.9501 H         1 UNK         0.0873 
     77 H77        28.8328   23.7401    2.2284 H         1 UNK         0.0745 
     78 H78        30.3168   23.2295    2.9839 H         1 UNK         0.0745 
     79 H79        32.2853   24.2372    2.1283 H         1 UNK         0.0705 
     80 H80        32.6588   24.6193    0.4707 H         1 UNK         0.0705 
     81 H81        30.6783   25.6635    3.4094 H         1 UNK         0.1334 
     82 H82        29.9251   29.5827    1.8518 H         1 UNK         0.1417 
     83 H83        31.6766   26.5755   -0.6560 H         1 UNK         0.1562 
     84 H84        31.5914   28.8602   -1.4162 H         1 UNK         0.0748 
     85 H85        31.0817   30.1545   -0.3740 H         1 UNK         0.0748 
     86 H86        28.8838   30.7602    0.2307 H         1 UNK         0.0940 
     87 H87        27.9121   31.1617   -1.1440 H         1 UNK         0.0940 
     88 H88        26.2605   29.4909   -0.6783 H         1 UNK         0.0703 
     89 H89        28.2332   27.9730    0.4567 H         1 UNK         0.3081 
     90 H90        27.7466   26.0950    2.1014 H         1 UNK         0.0719 
     91 H91        25.0309   24.9204    1.3063 H         1 UNK         0.0809 
     92 H92        26.2906   24.0879    2.2128 H         1 UNK         0.0809 
     93 H93        25.4764   25.4753    2.9141 H         1 UNK         0.0809 
     94 H94        28.4502   25.0278    0.2724 H         1 UNK         0.2990 
     95 H95        27.1583   24.5179   -3.0286 H         1 UNK         0.0690 
     96 H96        29.5928   24.7731   -3.2587 H         1 UNK         0.0788 
     97 H97        29.7506   25.2746   -1.5801 H         1 UNK         0.0788 
     98 H98        28.8895   26.2901   -2.7253 H         1 UNK         0.0788 
     99 H99        28.9083   22.9718   -1.2644 H         1 UNK         0.2993 
    100 H100       26.6375   20.2721   -0.8850 H         1 UNK         0.0949 
    101 H101       28.4676   18.9458   -1.9225 H         1 UNK         0.0767 
    102 H102       27.5689   19.8150   -3.1549 H         1 UNK         0.0767 
    103 H103       29.1465   20.4032   -2.6492 H         1 UNK         0.0767 
    104 H104       29.4227   20.7639   -0.2236 H         1 UNK         0.3013 
    105 H105       27.2557   29.6322    2.6406 H         1 UNK         0.3121 
    106 H106       26.7417   30.8183    4.4640 H         1 UNK         0.0774 
    107 H107       24.3890   31.5361    4.7314 H         1 UNK         0.0815 
    108 H108       24.1064   31.3545    3.0069 H         1 UNK         0.0815 
    109 H109       24.4826   29.9445    3.9928 H         1 UNK         0.0815 
    110 H110       28.1122   34.0431    3.3797 H         1 UNK         0.2987 
    111 H111       28.9176   31.2475    3.6594 H         1 UNK         0.0949 
    112 H112       29.3120   33.3652    5.8607 H         1 UNK         0.0806 
    113 H113       28.3448   31.9025    6.0211 H         1 UNK         0.0806 
    114 H114       30.0840   31.7897    5.8373 H         1 UNK         0.0806 
    115 H115       31.3970   31.2544    3.9316 H         1 UNK         0.3010 
    116 H116       32.8186   33.4849    2.7485 H         1 UNK         0.0829 
    117 H117       31.8845   32.2736    0.7050 H         1 UNK         0.0813 
    118 H118       33.6308   32.1675    0.7863 H         1 UNK         0.0813 
    119 H119       32.6520   30.7871    1.2665 H         1 UNK         0.0813 
    120 H120       35.1984   32.6489    2.4408 H         1 UNK         0.3038 
    121 H121       36.2386   31.8065    4.9021 H         1 UNK         0.0769 
    122 H122       37.5441   31.8003    2.1252 H         1 UNK         0.0811 
    123 H123       38.4080   31.7105    3.6535 H         1 UNK         0.0811 
    124 H124       37.5041   33.1589    3.2510 H         1 UNK         0.0811 
    125 H125       34.9734   29.8122    2.4067 H         1 UNK         0.3204 
    126 H126       36.2971   27.3315    2.9852 H         1 UNK         0.0748 
    127 H127       35.0771   27.7402    0.8547 H         1 UNK         0.0771 
    128 H128       34.3662   26.3762    1.7010 H         1 UNK         0.0771 
    129 H129       33.5615   27.9387    1.7367 H         1 UNK         0.0771 
    130 H130       33.7967   29.1234    4.7022 H         1 UNK         0.2980 
    131 H131       33.5444   26.8897    6.6182 H         1 UNK         0.0545 
    132 H132       33.8906   30.7001    7.9056 H         1 UNK         0.3459 
    133 H133       33.7729   30.4220    6.1819 H         1 UNK         0.3459 
    134 H134       31.5439   26.6638    5.3194 H         1 UNK         0.0616 
    135 H135       31.1097   27.2845    6.8813 H         1 UNK         0.0616 
    136 H136       29.1737   27.1991    4.6042 H         1 UNK         0.0634 
    137 H137       28.7293   28.7247    3.8948 H         1 UNK         0.0634 
@<TRIPOS>BOND
     1    1    2 1    
     2    1   72 1    
     3    1   73 1    
     4    1   74 1    
     5    2    3 2    
     6    2    4 am   BACKBONE|DICT|INTERRES
     7    4    5 1    
     8    4   75 1    
     9    5    6 1    
    10    5   35 1    
    11    5   76 1    
    12    6    7 1    
    13    6   77 1    
    14    6   78 1    
    15    7    8 1    
    16    8    9 1    
    17    8   79 1    
    18    8   80 1    
    19    9   10 ar   
    20    9   14 ar   
    21   10   11 ar   
    22   10   81 1    
    23   11   12 ar   
    24   11   71 1    
    25   12   13 ar   
    26   12   82 1    
    27   13   14 ar   
    28   13   15 1    
    29   14   83 1    
    30   15   16 1    
    31   15   84 1    
    32   15   85 1    
    33   16   17 1    
    34   17   18 1    
    35   17   86 1    
    36   17   87 1    
    37   18   19 1    
    38   18   37 1    
    39   18   88 1    
    40   19   20 am   BACKBONE|DICT|INTERRES
    41   19   89 1    
    42   20   21 2    
    43   20   22 1    
    44   22   23 1    
    45   22   24 1    
    46   22   90 1    
    47   23   91 1    
    48   23   92 1    
    49   23   93 1    
    50   24   25 am   BACKBONE|DICT|INTERRES
    51   24   94 1    
    52   25   26 2    
    53   25   27 1    
    54   27   28 1    
    55   27   29 1    
    56   27   95 1    
    57   28   96 1    
    58   28   97 1    
    59   28   98 1    
    60   29   30 am   BACKBONE|DICT|INTERRES
    61   29   99 1    
    62   30   31 2    
    63   30   32 1    
    64   32   33 1    
    65   32   34 1    
    66   32  100 1    
    67   33  101 1    
    68   33  102 1    
    69   33  103 1    
    70   34   35 am   BACKBONE|DICT|INTERRES
    71   34  104 1    
    72   35   36 2    
    73   37   38 2    
    74   37   39 am   BACKBONE|DICT|INTERRES
    75   39   40 1    
    76   39  105 1    
    77   40   41 1    
    78   40   42 1    
    79   40  106 1    
    80   41  107 1    
    81   41  108 1    
    82   41  109 1    
    83   42   43 2    
    84   42   44 am   BACKBONE|DICT|INTERRES
    85   44   45 1    
    86   44  110 1    
    87   45   46 1    
    88   45   47 1    
    89   45  111 1    
    90   46  112 1    
    91   46  113 1    
    92   46  114 1    
    93   47   48 2    
    94   47   49 am   BACKBONE|DICT|INTERRES
    95   49   50 1    
    96   49  115 1    
    97   50   51 1    
    98   50   52 1    
    99   50  116 1    
   100   51  117 1    
   101   51  118 1    
   102   51  119 1    
   103   52   53 2    
   104   52   54 am   BACKBONE|DICT|INTERRES
   105   54   55 1    
   106   54  120 1    
   107   55   56 1    
   108   55   57 1    
   109   55  121 1    
   110   56  122 1    
   111   56  123 1    
   112   56  124 1    
   113   57   58 2    
   114   57   59 am   BACKBONE|DICT|INTERRES
   115   59   60 1    
   116   59  125 1    
   117   60   61 1    
   118   60   62 1    
   119   60  126 1    
   120   61  127 1    
   121   61  128 1    
   122   61  129 1    
   123   62   63 2    
   124   62   64 am   BACKBONE|DICT|INTERRES
   125   64   65 1    
   126   64  130 1    
   127   65   66 1    
   128   65   69 1    
   129   65  131 1    
   130   66   67 am   BACKBONE|DICT|INTERRES
   131   66   68 2    
   132   67  132 1    
   133   67  133 1    
   134   69   70 1    
   135   69  134 1    
   136   69  135 1    
   137   70   71 1    
   138   71  136 1    
   139   71  137 1    
@<TRIPOS>SUBSTRUCTURE
     1 UNK         1 GROUP             0       ****    0 ROOT    
