@<TRIPOS>MOLECULE
3R136
137   139    1
SMALL
USER_CHARGES


@<TRIPOS>ATOM
      1 CA         27.2822   22.0811   -2.6762 C.3       0 UNK        -0.1979 
      2 C          27.6224   22.9948   -1.5101 C.2       0 UNK         0.4864 
      3 O          26.9642   24.0212   -1.3280 O.2       0 UNK        -0.5359 
      4 N          28.6424   22.6207   -0.7242 N.am      1 UNK        -0.4318 
      5 CA         29.2010   23.3639    0.4140 C.3       1 UNK         0.0824 
      6 C6         30.3597   22.5905    1.0900 C.3       12 UNK        -0.0944 
      7 S7         31.8293   22.5648    0.0052 S.3       12 UNK        -0.2672 
      8 C8         33.0300   23.5964    0.9150 C.3       12 UNK         0.0333 
      9 C9         32.4737   24.9628    1.2970 C.ar      12 UNK        -0.0807 
     10 C10        32.1538   25.2351    2.6303 C.ar      12 UNK        -0.0894 
     11 C11        31.6322   26.4769    3.0006 C.ar      12 UNK        -0.0804 
     12 C12        31.4191   27.4480    2.0198 C.ar      12 UNK        -0.0824 
     13 C13        31.7329   27.1928    0.6808 C.ar      12 UNK        -0.0762 
     14 C14        32.2771   25.9519    0.3277 C.ar      12 UNK        -0.0782 
     15 C15        31.4590   28.2620   -0.3734 C.3       12 UNK         0.0230 
     16 S16        30.4887   27.6718   -1.8011 S.3       12 UNK        -0.2608 
     17 C17        29.0789   26.8274   -1.0152 C.3       12 UNK        -0.0989 
     18 CA         27.7799   27.6669   -0.9747 C.3       5 UNK         0.0716 
     19 N          26.5948   26.8316   -1.2093 N.am      5 UNK        -0.4135 
     20 C          25.3723   27.3111   -1.4809 C.2       4 UNK         0.5031 
     21 O          25.1137   28.5125   -1.5641 O.2       4 UNK        -0.5229 
     22 CA         24.2398   26.3057   -1.7271 C.3       4 UNK         0.0329 
     23 CB         24.1456   25.9566   -3.2228 C.3       4 UNK        -0.2001 
     24 N          24.3713   25.0701   -0.9499 N.am      4 UNK        -0.4303 
     25 C          23.3412   24.4466   -0.3624 C.2       3 UNK         0.5044 
     26 O          22.1981   24.9034   -0.3091 O.2       3 UNK        -0.5152 
     27 CA         23.6084   23.0555    0.2314 C.3       3 UNK         0.0319 
     28 CB         23.6186   21.9937   -0.8806 C.3       3 UNK        -0.2001 
     29 N          24.8510   22.9702    0.9985 N.am      3 UNK        -0.4354 
     30 C          25.0080   23.4422    2.2433 C.2       2 UNK         0.4964 
     31 O          24.1479   24.0848    2.8459 O.2       2 UNK        -0.5047 
     32 CA         26.3284   23.1048    2.9602 C.3       2 UNK         0.0288 
     33 CB         26.1416   21.8854    3.8782 C.3       2 UNK        -0.2113 
     34 N          27.4334   22.8407    2.0347 N.am      2 UNK        -0.4145 
     35 C          28.1314   23.8095    1.4299 C.2       1 UNK         0.5006 
     36 O          27.9243   25.0107    1.6086 O.2       1 UNK        -0.5103 
     37 C          27.6388   28.4730    0.3347 C.2       5 UNK         0.5055 
     38 O          27.7490   29.6994    0.3144 O.2       5 UNK        -0.5220 
     39 N          27.3273   27.7599    1.4272 N.am      6 UNK        -0.4450 
     40 CA         26.8920   28.2186    2.7513 C.3       6 UNK         0.0367 
     41 CB         25.5762   29.0153    2.6580 C.3       6 UNK        -0.1929 
     42 C          27.9365   28.9766    3.5888 C.2       6 UNK         0.5070 
     43 O          28.0614   28.6801    4.7769 O.2       6 UNK        -0.5237 
     44 N          28.6505   29.9375    2.9951 N.am      7 UNK        -0.4739 
     45 CA         29.6310   30.7869    3.6696 C.3       7 UNK         0.0276 
     46 CB         28.9322   32.0280    4.2513 C.3       7 UNK        -0.1927 
     47 C          30.7398   31.1882    2.6928 C.2       7 UNK         0.5013 
     48 O          30.4934   31.2907    1.4900 O.2       7 UNK        -0.5193 
     49 N          31.9378   31.4119    3.2366 N.am      8 UNK        -0.4253 
     50 CA         33.1660   31.7718    2.5330 C.3       8 UNK         0.0242 
     51 CB         33.7009   30.5634    1.7355 C.3       8 UNK        -0.2000 
     52 C          34.1881   32.2503    3.5728 C.2       8 UNK         0.4948 
     53 O          33.8845   32.2576    4.7719 O.2       8 UNK        -0.5275 
     54 N          35.3927   32.6130    3.1121 N.am      9 UNK        -0.4246 
     55 CA         36.5418   32.9481    3.9576 C.3       9 UNK         0.0261 
     56 CB         37.7353   33.3415    3.0707 C.3       9 UNK        -0.1959 
     57 C          36.9014   31.7743    4.8869 C.2       9 UNK         0.5033 
     58 O          37.2781   30.7078    4.3965 O.2       9 UNK        -0.5390 
     59 N          36.7178   31.9903    6.1966 N.am      10 UNK        -0.4215 
     60 CA         36.8381   31.0126    7.2859 C.3       10 UNK         0.0240 
     61 CB         38.2832   30.4791    7.4046 C.3       10 UNK        -0.1982 
     62 C          35.7825   29.8836    7.2462 C.2       10 UNK         0.4970 
     63 O          36.0174   28.8281    7.8377 O.2       10 UNK        -0.4916 
     64 N          34.6351   30.1244    6.5951 N.am      11 UNK        -0.4279 
     65 CA         33.4793   29.2124    6.5575 C.3       11 UNK         0.1003 
     66 C          32.1190   29.9253    6.8011 C.2       11 UNK         0.5709 
     67 N          32.0047   31.2358    6.6158 N.am      11 UNK        -0.7358 
     68 O          31.1497   29.2838    7.1951 O.2       11 UNK        -0.4999 
     69 C69        33.4721   28.3465    5.2664 C.3       12 UNK        -0.0954 
     70 S70        32.7339   26.7011    5.5406 S.3       12 UNK        -0.2268 
     71 C71        31.2718   26.7484    4.4551 C.3       12 UNK         0.0203 
     72 H72        26.8665   22.6590   -3.5014 H         1 UNK         0.0888 
     73 H73        28.1663   21.5604   -3.0437 H         1 UNK         0.0888 
     74 H74        26.5465   21.3371   -2.3739 H         1 UNK         0.0888 
     75 H75        29.1350   21.7682   -0.9506 H         1 UNK         0.3017 
     76 H76        29.6268   24.2768    0.0024 H         1 UNK         0.0873 
     77 H77        30.0671   21.5615    1.3060 H         1 UNK         0.0745 
     78 H78        30.6252   23.0282    2.0528 H         1 UNK         0.0745 
     79 H79        33.9192   23.7294    0.2972 H         1 UNK         0.0705 
     80 H80        33.3570   23.0528    1.8028 H         1 UNK         0.0705 
     81 H81        32.3077   24.4780    3.3872 H         1 UNK         0.1334 
     82 H82        30.9964   28.4010    2.2984 H         1 UNK         0.1417 
     83 H83        32.5194   25.7448   -0.7060 H         1 UNK         0.1562 
     84 H84        32.4103   28.6515   -0.7372 H         1 UNK         0.0748 
     85 H85        30.9250   29.1058    0.0645 H         1 UNK         0.0748 
     86 H86        29.3495   26.4713   -0.0235 H         1 UNK         0.0940 
     87 H87        28.9220   25.9271   -1.6109 H         1 UNK         0.0940 
     88 H88        27.8118   28.3866   -1.7959 H         1 UNK         0.0703 
     89 H89        26.7400   25.8246   -1.1913 H         1 UNK         0.3081 
     90 H90        23.3194   26.8211   -1.4440 H         1 UNK         0.0719 
     91 H91        24.0564   26.8572   -3.8319 H         1 UNK         0.0809 
     92 H92        25.0284   25.4146   -3.5647 H         1 UNK         0.0809 
     93 H93        23.2721   25.3383   -3.4304 H         1 UNK         0.0809 
     94 H94        25.2817   24.6146   -0.9599 H         1 UNK         0.2990 
     95 H95        22.7807   22.8204    0.9045 H         1 UNK         0.0690 
     96 H96        23.7589   20.9916   -0.4748 H         1 UNK         0.0788 
     97 H97        24.4078   22.1778   -1.6094 H         1 UNK         0.0788 
     98 H98        22.6723   21.9922   -1.4235 H         1 UNK         0.0788 
     99 H99        25.6196   22.4771    0.5710 H         1 UNK         0.2993 
    100 H100       26.5876   23.9625    3.5858 H         1 UNK         0.0949 
    101 H101       25.3429   22.0597    4.6008 H         1 UNK         0.0767 
    102 H102       25.8804   20.9892    3.3138 H         1 UNK         0.0767 
    103 H103       27.0482   21.6738    4.4456 H         1 UNK         0.0767 
    104 H104       27.6510   21.8750    1.8341 H         1 UNK         0.3013 
    105 H105       27.3822   26.7448    1.3474 H         1 UNK         0.3121 
    106 H106       26.6714   27.3019    3.3013 H         1 UNK         0.0774 
    107 H107       24.7987   28.4381    2.1574 H         1 UNK         0.0815 
    108 H108       25.2038   29.2693    3.6512 H         1 UNK         0.0815 
    109 H109       25.7042   29.9501    2.1115 H         1 UNK         0.0815 
    110 H110       28.5195   30.1040    1.9977 H         1 UNK         0.2987 
    111 H111       30.0903   30.2226    4.4844 H         1 UNK         0.0949 
    112 H112       28.1805   31.7497    4.9902 H         1 UNK         0.0806 
    113 H113       29.6464   32.6852    4.7491 H         1 UNK         0.0806 
    114 H114       28.4378   32.6109    3.4732 H         1 UNK         0.0806 
    115 H115       32.0448   31.3961    4.2439 H         1 UNK         0.3010 
    116 H116       32.9557   32.6015    1.8550 H         1 UNK         0.0829 
    117 H117       32.9798   30.2335    0.9909 H         1 UNK         0.0813 
    118 H118       34.6147   30.8088    1.1941 H         1 UNK         0.0813 
    119 H119       33.9236   29.7152    2.3836 H         1 UNK         0.0813 
    120 H120       35.5677   32.5608    2.1193 H         1 UNK         0.3038 
    121 H121       36.2682   33.8154    4.5623 H         1 UNK         0.0769 
    122 H122       38.6020   33.6036    3.6790 H         1 UNK         0.0811 
    123 H123       37.5022   34.2073    2.4506 H         1 UNK         0.0811 
    124 H124       38.0358   32.5263    2.4110 H         1 UNK         0.0811 
    125 H125       36.3782   32.9012    6.4758 H         1 UNK         0.3204 
    126 H126       36.6276   31.5686    8.2006 H         1 UNK         0.0748 
    127 H127       38.4124   29.8957    8.3171 H         1 UNK         0.0771 
    128 H128       38.5475   29.8318    6.5679 H         1 UNK         0.0771 
    129 H129       39.0059   31.2943    7.4401 H         1 UNK         0.0771 
    130 H130       34.5183   31.0032    6.1019 H         1 UNK         0.2980 
    131 H131       33.5772   28.5387    7.4110 H         1 UNK         0.0545 
    132 H132       32.7739   31.7915    6.2598 H         1 UNK         0.3459 
    133 H133       31.1283   31.6795    6.8391 H         1 UNK         0.3459 
    134 H134       32.9728   28.8603    4.4439 H         1 UNK         0.0616 
    135 H135       34.4935   28.1703    4.9255 H         1 UNK         0.0616 
    136 H136       30.5639   25.9884    4.7882 H         1 UNK         0.0634 
    137 H137       30.7647   27.7076    4.5687 H         1 UNK         0.0634 
@<TRIPOS>BOND
     1    1    2 1    
     2    1   72 1    
     3    1   73 1    
     4    1   74 1    
     5    2    3 2    
     6    2    4 am   BACKBONE|DICT|INTERRES
     7    4    5 1    
     8    4   75 1    
     9    5    6 1    
    10    5   35 1    
    11    5   76 1    
    12    6    7 1    
    13    6   77 1    
    14    6   78 1    
    15    7    8 1    
    16    8    9 1    
    17    8   79 1    
    18    8   80 1    
    19    9   10 ar   
    20    9   14 ar   
    21   10   11 ar   
    22   10   81 1    
    23   11   12 ar   
    24   11   71 1    
    25   12   13 ar   
    26   12   82 1    
    27   13   14 ar   
    28   13   15 1    
    29   14   83 1    
    30   15   16 1    
    31   15   84 1    
    32   15   85 1    
    33   16   17 1    
    34   17   18 1    
    35   17   86 1    
    36   17   87 1    
    37   18   19 1    
    38   18   37 1    
    39   18   88 1    
    40   19   20 am   BACKBONE|DICT|INTERRES
    41   19   89 1    
    42   20   21 2    
    43   20   22 1    
    44   22   23 1    
    45   22   24 1    
    46   22   90 1    
    47   23   91 1    
    48   23   92 1    
    49   23   93 1    
    50   24   25 am   BACKBONE|DICT|INTERRES
    51   24   94 1    
    52   25   26 2    
    53   25   27 1    
    54   27   28 1    
    55   27   29 1    
    56   27   95 1    
    57   28   96 1    
    58   28   97 1    
    59   28   98 1    
    60   29   30 am   BACKBONE|DICT|INTERRES
    61   29   99 1    
    62   30   31 2    
    63   30   32 1    
    64   32   33 1    
    65   32   34 1    
    66   32  100 1    
    67   33  101 1    
    68   33  102 1    
    69   33  103 1    
    70   34   35 am   BACKBONE|DICT|INTERRES
    71   34  104 1    
    72   35   36 2    
    73   37   38 2    
    74   37   39 am   BACKBONE|DICT|INTERRES
    75   39   40 1    
    76   39  105 1    
    77   40   41 1    
    78   40   42 1    
    79   40  106 1    
    80   41  107 1    
    81   41  108 1    
    82   41  109 1    
    83   42   43 2    
    84   42   44 am   BACKBONE|DICT|INTERRES
    85   44   45 1    
    86   44  110 1    
    87   45   46 1    
    88   45   47 1    
    89   45  111 1    
    90   46  112 1    
    91   46  113 1    
    92   46  114 1    
    93   47   48 2    
    94   47   49 am   BACKBONE|DICT|INTERRES
    95   49   50 1    
    96   49  115 1    
    97   50   51 1    
    98   50   52 1    
    99   50  116 1    
   100   51  117 1    
   101   51  118 1    
   102   51  119 1    
   103   52   53 2    
   104   52   54 am   BACKBONE|DICT|INTERRES
   105   54   55 1    
   106   54  120 1    
   107   55   56 1    
   108   55   57 1    
   109   55  121 1    
   110   56  122 1    
   111   56  123 1    
   112   56  124 1    
   113   57   58 2    
   114   57   59 am   BACKBONE|DICT|INTERRES
   115   59   60 1    
   116   59  125 1    
   117   60   61 1    
   118   60   62 1    
   119   60  126 1    
   120   61  127 1    
   121   61  128 1    
   122   61  129 1    
   123   62   63 2    
   124   62   64 am   BACKBONE|DICT|INTERRES
   125   64   65 1    
   126   64  130 1    
   127   65   66 1    
   128   65   69 1    
   129   65  131 1    
   130   66   67 am   BACKBONE|DICT|INTERRES
   131   66   68 2    
   132   67  132 1    
   133   67  133 1    
   134   69   70 1    
   135   69  134 1    
   136   69  135 1    
   137   70   71 1    
   138   71  136 1    
   139   71  137 1    
@<TRIPOS>SUBSTRUCTURE
     1 UNK         1 GROUP             0       ****    0 ROOT    
