@<TRIPOS>MOLECULE
3R136
137   139    1
SMALL
USER_CHARGES


@<TRIPOS>ATOM
      1 CA         31.6574   24.5328   -0.1727 C.3       0 UNK        -0.1979 
      2 C          31.7851   23.1461   -0.7955 C.2       0 UNK         0.4864 
      3 O          32.6181   22.9561   -1.6805 O.2       0 UNK        -0.5359 
      4 N          30.9979   22.1496   -0.3698 N.am      1 UNK        -0.4318 
      5 CA         29.9248   22.2311    0.6298 C.3       1 UNK         0.0824 
      6 C6         29.6403   20.8496    1.2779 C.3       12 UNK        -0.0944 
      7 S7         31.1373   20.0590    1.9683 S.3       12 UNK        -0.2672 
      8 C8         31.0536   20.5059    3.7333 C.3       12 UNK         0.0333 
      9 C9         31.2381   22.0006    3.9570 C.ar      12 UNK        -0.0807 
     10 C10        32.4766   22.6037    3.7140 C.ar      12 UNK        -0.0894 
     11 C11        32.6473   23.9795    3.9008 C.ar      12 UNK        -0.0804 
     12 C12        31.5669   24.7521    4.3389 C.ar      12 UNK        -0.0824 
     13 C13        30.3232   24.1618    4.5761 C.ar      12 UNK        -0.0762 
     14 C14        30.1686   22.7831    4.4002 C.ar      12 UNK        -0.0782 
     15 C15        29.1277   25.0195    4.9539 C.3       12 UNK         0.0230 
     16 S16        28.0093   25.1008    3.5313 S.3       12 UNK        -0.2608 
     17 C17        26.8988   26.4861    3.9346 C.3       12 UNK        -0.0989 
     18 CA         27.4015   27.8707    3.4367 C.3       5 UNK         0.0716 
     19 N          28.1624   27.7975    2.1823 N.am      5 UNK        -0.4135 
     20 C          28.8736   28.7906    1.6320 C.2       4 UNK         0.5031 
     21 O          28.9238   29.9337    2.0831 O.2       4 UNK        -0.5229 
     22 CA         29.6683   28.4543    0.3626 C.3       4 UNK         0.0329 
     23 CB         31.0597   27.9187    0.7373 C.3       4 UNK        -0.2001 
     24 N          28.9731   27.4891   -0.4918 N.am      4 UNK        -0.4303 
     25 C          27.8796   27.7778   -1.2116 C.2       3 UNK         0.5044 
     26 O          27.3682   28.8961   -1.2687 O.2       3 UNK        -0.5152 
     27 CA         27.2289   26.6072   -1.9663 C.3       3 UNK         0.0319 
     28 CB         27.9871   26.3106   -3.2701 C.3       3 UNK        -0.2001 
     29 N          27.1258   25.3792   -1.1710 N.am      3 UNK        -0.4354 
     30 C          26.4488   25.2509   -0.0222 C.2       2 UNK         0.4964 
     31 O          25.8932   26.1877    0.5537 O.2       2 UNK        -0.5047 
     32 CA         26.3899   23.8449    0.5999 C.3       2 UNK         0.0288 
     33 CB         25.4853   22.9002   -0.2167 C.3       2 UNK        -0.2113 
     34 N          27.7067   23.2474    0.8739 N.am      2 UNK        -0.4145 
     35 C          28.6386   22.8226    0.0090 C.2       1 UNK         0.5006 
     36 O          28.5126   22.8866   -1.2173 O.2       1 UNK        -0.5103 
     37 C          26.2209   28.8548    3.3367 C.2       5 UNK         0.5055 
     38 O          25.8976   29.5247    4.3175 O.2       5 UNK        -0.5220 
     39 N          25.6157   28.9287    2.1422 N.am      6 UNK        -0.4450 
     40 CA         24.5775   29.8938    1.7759 C.3       6 UNK         0.0367 
     41 CB         23.9272   29.4374    0.4594 C.3       6 UNK        -0.1929 
     42 C          25.0983   31.3399    1.6462 C.2       6 UNK         0.5070 
     43 O          24.2871   32.2668    1.6423 O.2       6 UNK        -0.5237 
     44 N          26.4216   31.5087    1.5317 N.am      7 UNK        -0.4739 
     45 CA         27.1213   32.7871    1.4810 C.3       7 UNK         0.0276 
     46 CB         28.0499   32.7937    0.2477 C.3       7 UNK        -0.1927 
     47 C          27.8421   33.0093    2.8243 C.2       7 UNK         0.5013 
     48 O          27.1885   32.9895    3.8688 O.2       7 UNK        -0.5193 
     49 N          29.1596   33.2447    2.7842 N.am      8 UNK        -0.4253 
     50 CA         29.9840   33.5939    3.9441 C.3       8 UNK         0.0242 
     51 CB         31.0905   34.5566    3.4756 C.3       8 UNK        -0.2000 
     52 C          30.6079   32.3867    4.6696 C.2       8 UNK         0.4948 
     53 O          31.2200   32.5957    5.7179 O.2       8 UNK        -0.5275 
     54 N          30.4971   31.1722    4.1029 N.am      9 UNK        -0.4246 
     55 CA         31.1731   29.9351    4.5311 C.3       9 UNK         0.0261 
     56 CB         30.6209   29.4373    5.8835 C.3       9 UNK        -0.1959 
     57 C          32.7103   30.0730    4.5162 C.2       9 UNK         0.5033 
     58 O          33.3870   29.6124    5.4377 O.2       9 UNK        -0.5390 
     59 N          33.2270   30.7264    3.4635 N.am      10 UNK        -0.4215 
     60 CA         34.6199   31.1648    3.3080 C.3       10 UNK         0.0240 
     61 CB         34.7530   31.9484    1.9917 C.3       10 UNK        -0.1982 
     62 C          35.6822   30.0530    3.3803 C.2       10 UNK         0.4970 
     63 O          36.8212   30.3413    3.7504 O.2       10 UNK        -0.4916 
     64 N          35.3003   28.8162    3.0413 N.am      11 UNK        -0.4279 
     65 CA         36.1274   27.6135    3.2108 C.3       11 UNK         0.1003 
     66 C          36.3223   27.1543    4.6873 C.2       11 UNK         0.5709 
     67 N          35.5839   27.6775    5.6600 N.am      11 UNK        -0.7358 
     68 O          37.1723   26.3085    4.9552 O.2       11 UNK        -0.4999 
     69 C69        35.6556   26.4568    2.2892 C.3       12 UNK        -0.0954 
     70 S70        33.8931   26.0179    2.4733 S.3       12 UNK        -0.2268 
     71 C71        34.0017   24.6252    3.6433 C.3       12 UNK         0.0203 
     72 H72        30.6835   24.9646   -0.3933 H         1 UNK         0.0888 
     73 H73        31.7934   24.4908    0.9074 H         1 UNK         0.0888 
     74 H74        32.4192   25.2023   -0.5717 H         1 UNK         0.0888 
     75 H75        31.0977   21.2445   -0.8053 H         1 UNK         0.3017 
     76 H76        30.2413   22.9052    1.4265 H         1 UNK         0.0873 
     77 H77        28.8926   20.9358    2.0685 H         1 UNK         0.0745 
     78 H78        29.2187   20.1639    0.5400 H         1 UNK         0.0745 
     79 H79        31.8369   19.9676    4.2687 H         1 UNK         0.0705 
     80 H80        30.1065   20.1587    4.1494 H         1 UNK         0.0705 
     81 H81        33.3042   21.9975    3.3712 H         1 UNK         0.1334 
     82 H82        31.6919   25.8183    4.4717 H         1 UNK         0.1417 
     83 H83        29.2034   22.3284    4.5787 H         1 UNK         0.1562 
     84 H84        29.4413   26.0264    5.2344 H         1 UNK         0.0748 
     85 H85        28.6086   24.5929    5.8134 H         1 UNK         0.0748 
     86 H86        26.7193   26.5105    5.0112 H         1 UNK         0.0940 
     87 H87        25.9371   26.2361    3.4801 H         1 UNK         0.0940 
     88 H88        28.0875   28.2649    4.1888 H         1 UNK         0.0703 
     89 H89        28.1679   26.8915    1.7387 H         1 UNK         0.3081 
     90 H90        29.7999   29.3799   -0.2025 H         1 UNK         0.0719 
     91 H91        30.9995   27.0125    1.3415 H         1 UNK         0.0809 
     92 H92        31.6531   27.6958   -0.1495 H         1 UNK         0.0809 
     93 H93        31.6174   28.6557    1.3163 H         1 UNK         0.0809 
     94 H94        29.3271   26.5458   -0.5163 H         1 UNK         0.2990 
     95 H95        26.2130   26.9123   -2.2260 H         1 UNK         0.0690 
     96 H96        27.4699   25.5581   -3.8657 H         1 UNK         0.0788 
     97 H97        28.9981   25.9483   -3.0790 H         1 UNK         0.0788 
     98 H98        28.0715   27.2072   -3.8861 H         1 UNK         0.0788 
     99 H99        27.5762   24.5445   -1.5371 H         1 UNK         0.2993 
    100 H100       25.9172   23.9661    1.5763 H         1 UNK         0.0949 
    101 H101       25.8697   22.7226   -1.2214 H         1 UNK         0.0767 
    102 H102       25.3784   21.9335    0.2755 H         1 UNK         0.0767 
    103 H103       24.4844   23.3204   -0.3248 H         1 UNK         0.0767 
    104 H104       27.9331   23.2055    1.8593 H         1 UNK         0.3013 
    105 H105       25.9147   28.2875    1.4161 H         1 UNK         0.3121 
    106 H106       23.8160   29.8887    2.5586 H         1 UNK         0.0774 
    107 H107       23.1185   30.1091    0.1686 H         1 UNK         0.0815 
    108 H108       24.6481   29.4197   -0.3594 H         1 UNK         0.0815 
    109 H109       23.5012   28.4380    0.5518 H         1 UNK         0.0815 
    110 H110       27.0208   30.6959    1.6122 H         1 UNK         0.2987 
    111 H111       26.4093   33.6076    1.3690 H         1 UNK         0.0949 
    112 H112       28.5611   33.7510    0.1376 H         1 UNK         0.0806 
    113 H113       28.8049   32.0079    0.2944 H         1 UNK         0.0806 
    114 H114       27.4777   32.6369   -0.6671 H         1 UNK         0.0806 
    115 H115       29.6214   33.2259    1.8865 H         1 UNK         0.3010 
    116 H116       29.3687   34.1219    4.6762 H         1 UNK         0.0829 
    117 H117       30.6699   35.4510    3.0153 H         1 UNK         0.0813 
    118 H118       31.7046   34.8880    4.3143 H         1 UNK         0.0813 
    119 H119       31.7570   34.0868    2.7513 H         1 UNK         0.0813 
    120 H120       29.9152   31.0733    3.2740 H         1 UNK         0.3038 
    121 H121       30.9343   29.1749    3.7874 H         1 UNK         0.0769 
    122 H122       29.5346   29.3550    5.8635 H         1 UNK         0.0811 
    123 H123       30.8903   30.1059    6.7016 H         1 UNK         0.0811 
    124 H124       31.0179   28.4511    6.1270 H         1 UNK         0.0811 
    125 H125       32.5812   31.0544    2.7607 H         1 UNK         0.3204 
    126 H126       34.8275   31.8502    4.1324 H         1 UNK         0.0748 
    127 H127       35.7718   32.3143    1.8550 H         1 UNK         0.0771 
    128 H128       34.5110   31.3288    1.1271 H         1 UNK         0.0771 
    129 H129       34.0964   32.8187    1.9778 H         1 UNK         0.0771 
    130 H130       34.3447   28.6568    2.7614 H         1 UNK         0.2980 
    131 H131       37.1307   27.8777    2.8710 H         1 UNK         0.0545 
    132 H132       35.7337   27.3694    6.6069 H         1 UNK         0.3459 
    133 H133       34.8683   28.3725    5.4669 H         1 UNK         0.3459 
    134 H134       36.2754   25.5686    2.4248 H         1 UNK         0.0616 
    135 H135       35.8024   26.7514    1.2491 H         1 UNK         0.0616 
    136 H136       34.7083   23.8911    3.2531 H         1 UNK         0.0634 
    137 H137       34.4055   24.9759    4.5931 H         1 UNK         0.0634 
@<TRIPOS>BOND
     1    1    2 1    
     2    1   72 1    
     3    1   73 1    
     4    1   74 1    
     5    2    3 2    
     6    2    4 am   BACKBONE|DICT|INTERRES
     7    4    5 1    
     8    4   75 1    
     9    5    6 1    
    10    5   35 1    
    11    5   76 1    
    12    6    7 1    
    13    6   77 1    
    14    6   78 1    
    15    7    8 1    
    16    8    9 1    
    17    8   79 1    
    18    8   80 1    
    19    9   10 ar   
    20    9   14 ar   
    21   10   11 ar   
    22   10   81 1    
    23   11   12 ar   
    24   11   71 1    
    25   12   13 ar   
    26   12   82 1    
    27   13   14 ar   
    28   13   15 1    
    29   14   83 1    
    30   15   16 1    
    31   15   84 1    
    32   15   85 1    
    33   16   17 1    
    34   17   18 1    
    35   17   86 1    
    36   17   87 1    
    37   18   19 1    
    38   18   37 1    
    39   18   88 1    
    40   19   20 am   BACKBONE|DICT|INTERRES
    41   19   89 1    
    42   20   21 2    
    43   20   22 1    
    44   22   23 1    
    45   22   24 1    
    46   22   90 1    
    47   23   91 1    
    48   23   92 1    
    49   23   93 1    
    50   24   25 am   BACKBONE|DICT|INTERRES
    51   24   94 1    
    52   25   26 2    
    53   25   27 1    
    54   27   28 1    
    55   27   29 1    
    56   27   95 1    
    57   28   96 1    
    58   28   97 1    
    59   28   98 1    
    60   29   30 am   BACKBONE|DICT|INTERRES
    61   29   99 1    
    62   30   31 2    
    63   30   32 1    
    64   32   33 1    
    65   32   34 1    
    66   32  100 1    
    67   33  101 1    
    68   33  102 1    
    69   33  103 1    
    70   34   35 am   BACKBONE|DICT|INTERRES
    71   34  104 1    
    72   35   36 2    
    73   37   38 2    
    74   37   39 am   BACKBONE|DICT|INTERRES
    75   39   40 1    
    76   39  105 1    
    77   40   41 1    
    78   40   42 1    
    79   40  106 1    
    80   41  107 1    
    81   41  108 1    
    82   41  109 1    
    83   42   43 2    
    84   42   44 am   BACKBONE|DICT|INTERRES
    85   44   45 1    
    86   44  110 1    
    87   45   46 1    
    88   45   47 1    
    89   45  111 1    
    90   46  112 1    
    91   46  113 1    
    92   46  114 1    
    93   47   48 2    
    94   47   49 am   BACKBONE|DICT|INTERRES
    95   49   50 1    
    96   49  115 1    
    97   50   51 1    
    98   50   52 1    
    99   50  116 1    
   100   51  117 1    
   101   51  118 1    
   102   51  119 1    
   103   52   53 2    
   104   52   54 am   BACKBONE|DICT|INTERRES
   105   54   55 1    
   106   54  120 1    
   107   55   56 1    
   108   55   57 1    
   109   55  121 1    
   110   56  122 1    
   111   56  123 1    
   112   56  124 1    
   113   57   58 2    
   114   57   59 am   BACKBONE|DICT|INTERRES
   115   59   60 1    
   116   59  125 1    
   117   60   61 1    
   118   60   62 1    
   119   60  126 1    
   120   61  127 1    
   121   61  128 1    
   122   61  129 1    
   123   62   63 2    
   124   62   64 am   BACKBONE|DICT|INTERRES
   125   64   65 1    
   126   64  130 1    
   127   65   66 1    
   128   65   69 1    
   129   65  131 1    
   130   66   67 am   BACKBONE|DICT|INTERRES
   131   66   68 2    
   132   67  132 1    
   133   67  133 1    
   134   69   70 1    
   135   69  134 1    
   136   69  135 1    
   137   70   71 1    
   138   71  136 1    
   139   71  137 1    
@<TRIPOS>SUBSTRUCTURE
     1 UNK         1 GROUP             0       ****    0 ROOT    
