@<TRIPOS>MOLECULE
3R136
137   139    1
SMALL
USER_CHARGES


@<TRIPOS>ATOM
      1 CA         31.3976   25.9975   -3.0680 C.3       0 UNK        -0.1979 
      2 C          31.2600   26.8282   -1.7939 C.2       0 UNK         0.4864 
      3 O          31.6237   28.0022   -1.8210 O.2       0 UNK        -0.5359 
      4 N          30.7665   26.2978   -0.6617 N.am      1 UNK        -0.4318 
      5 CA         30.2445   24.9443   -0.3963 C.3       1 UNK         0.0824 
      6 C6         31.2502   23.7909   -0.6982 C.3       12 UNK        -0.0944 
      7 S7         32.9098   24.0650    0.0188 S.3       12 UNK        -0.2672 
      8 C8         32.9435   22.8852    1.4049 C.3       12 UNK         0.0333 
      9 C9         31.9572   23.2708    2.4961 C.ar      12 UNK        -0.0807 
     10 C10        32.2777   24.2760    3.4125 C.ar      12 UNK        -0.0894 
     11 C11        31.3674   24.6453    4.4076 C.ar      12 UNK        -0.0804 
     12 C12        30.1318   23.9964    4.4889 C.ar      12 UNK        -0.0824 
     13 C13        29.7995   22.9969    3.5698 C.ar      12 UNK        -0.0762 
     14 C14        30.7201   22.6286    2.5856 C.ar      12 UNK        -0.0782 
     15 C15        28.4388   22.3245    3.6126 C.3       12 UNK         0.0230 
     16 S16        27.2884   23.1390    2.4618 S.3       12 UNK        -0.2608 
     17 C17        26.6751   24.5360    3.4563 C.3       12 UNK        -0.0989 
     18 CA         27.3852   25.8788    3.1464 C.3       5 UNK         0.0716 
     19 N          26.9899   26.4629    1.8554 N.am      5 UNK        -0.4135 
     20 C          27.4711   27.6225    1.3744 C.2       4 UNK         0.5031 
     21 O          28.3870   28.2448    1.9201 O.2       4 UNK        -0.5229 
     22 CA         26.8251   28.2145    0.1076 C.3       4 UNK         0.0329 
     23 CB         27.8340   29.0184   -0.7327 C.3       4 UNK        -0.2001 
     24 N          26.2119   27.1947   -0.7413 N.am      4 UNK        -0.4303 
     25 C          24.8958   27.0373   -0.9425 C.2       3 UNK         0.5044 
     26 O          24.0316   27.7266   -0.4002 O.2       3 UNK        -0.5152 
     27 CA         24.4577   25.9208   -1.9119 C.3       3 UNK         0.0319 
     28 CB         24.1362   26.5076   -3.2958 C.3       3 UNK        -0.2001 
     29 N          25.4512   24.8546   -2.0637 N.am      3 UNK        -0.4354 
     30 C          25.8186   24.0152   -1.0868 C.2       2 UNK         0.4964 
     31 O          25.2898   24.0018    0.0238 O.2       2 UNK        -0.5047 
     32 CA         26.9907   23.0588   -1.3822 C.3       2 UNK         0.0288 
     33 CB         27.1544   22.7271   -2.8834 C.3       2 UNK        -0.2113 
     34 N          28.2638   23.5378   -0.8226 N.am      2 UNK        -0.4145 
     35 C          28.8654   24.7144   -1.0608 C.2       1 UNK         0.5006 
     36 O          28.3689   25.5939   -1.7699 O.2       1 UNK        -0.5103 
     37 C          27.1200   26.8757    4.2939 C.2       5 UNK         0.5055 
     38 O          25.9714   27.2768    4.4909 O.2       5 UNK        -0.5220 
     39 N          28.1931   27.2644    4.9968 N.am      6 UNK        -0.4450 
     40 CA         28.2475   28.2494    6.0864 C.3       6 UNK         0.0367 
     41 CB         27.3451   27.8353    7.2681 C.3       6 UNK        -0.1929 
     42 C          28.0038   29.7096    5.6477 C.2       6 UNK         0.5070 
     43 O          27.9478   30.5845    6.5131 O.2       6 UNK        -0.5237 
     44 N          27.8864   29.9639    4.3373 N.am      7 UNK        -0.4739 
     45 CA         27.7180   31.2979    3.7542 C.3       7 UNK         0.0276 
     46 CB         26.4999   31.2911    2.8170 C.3       7 UNK        -0.1927 
     47 C          28.9743   31.7439    2.9916 C.2       7 UNK         0.5013 
     48 O          29.2429   32.9449    2.9337 O.2       7 UNK        -0.5193 
     49 N          29.7133   30.7856    2.4149 N.am      8 UNK        -0.4253 
     50 CA         30.9680   31.0061    1.6970 C.3       8 UNK         0.0242 
     51 CB         31.3910   29.6847    1.0373 C.3       8 UNK        -0.2000 
     52 C          32.0898   31.5044    2.6204 C.2       8 UNK         0.4948 
     53 O          32.1629   31.0856    3.7773 O.2       8 UNK        -0.5275 
     54 N          32.9964   32.3239    2.0681 N.am      9 UNK        -0.4246 
     55 CA         34.1884   32.8392    2.7572 C.3       9 UNK         0.0261 
     56 CB         34.9178   33.8378    1.8442 C.3       9 UNK        -0.1959 
     57 C          35.1535   31.7357    3.2306 C.2       9 UNK         0.5033 
     58 O          35.8259   31.9126    4.2475 O.2       9 UNK        -0.5390 
     59 N          35.1587   30.5983    2.5196 N.am      10 UNK        -0.4215 
     60 CA         35.8705   29.3680    2.8748 C.3       10 UNK         0.0240 
     61 CB         35.6917   28.3430    1.7421 C.3       10 UNK        -0.1982 
     62 C          35.4331   28.7550    4.2195 C.2       10 UNK         0.4970 
     63 O          36.2273   28.0370    4.8284 O.2       10 UNK        -0.4916 
     64 N          34.2025   29.0476    4.6623 N.am      11 UNK        -0.4279 
     65 CA         33.6679   28.6345    5.9668 C.3       11 UNK         0.1003 
     66 C          34.1184   29.5460    7.1462 C.2       11 UNK         0.5709 
     67 N          34.8345   30.6427    6.9184 N.am      11 UNK        -0.7358 
     68 O          33.8243   29.2423    8.2999 O.2       11 UNK        -0.4999 
     69 C69        32.1245   28.4678    5.9371 C.3       12 UNK        -0.0954 
     70 S70        31.5441   27.3815    4.5915 S.3       12 UNK        -0.2268 
     71 C71        31.7214   25.7554    5.3816 C.3       12 UNK         0.0203 
     72 H72        32.3121   25.4063   -3.0338 H         1 UNK         0.0888 
     73 H73        30.5523   25.3332   -3.2313 H         1 UNK         0.0888 
     74 H74        31.4603   26.6526   -3.9366 H         1 UNK         0.0888 
     75 H75        30.7022   26.9149    0.1341 H         1 UNK         0.3017 
     76 H76        30.0517   24.9300    0.6781 H         1 UNK         0.0873 
     77 H77        30.8674   22.8411   -0.3245 H         1 UNK         0.0745 
     78 H78        31.3697   23.6371   -1.7702 H         1 UNK         0.0745 
     79 H79        33.9521   22.8596    1.8200 H         1 UNK         0.0705 
     80 H80        32.7424   21.8789    1.0339 H         1 UNK         0.0705 
     81 H81        33.2301   24.7840    3.3411 H         1 UNK         0.1334 
     82 H82        29.4221   24.2799    5.2541 H         1 UNK         0.1417 
     83 H83        30.4641   21.8507    1.8794 H         1 UNK         0.1562 
     84 H84        28.0339   22.3193    4.6256 H         1 UNK         0.0748 
     85 H85        28.5384   21.2769    3.3244 H         1 UNK         0.0748 
     86 H86        26.7776   24.2709    4.5107 H         1 UNK         0.0940 
     87 H87        25.6007   24.6296    3.2859 H         1 UNK         0.0940 
     88 H88        28.4601   25.6988    3.0898 H         1 UNK         0.0703 
     89 H89        26.2383   26.0002    1.3632 H         1 UNK         0.3081 
     90 H90        26.0619   28.9117    0.4564 H         1 UNK         0.0719 
     91 H91        28.6634   28.3958   -1.0688 H         1 UNK         0.0809 
     92 H92        27.3601   29.4465   -1.6159 H         1 UNK         0.0809 
     93 H93        28.2532   29.8480   -0.1622 H         1 UNK         0.0809 
     94 H94        26.8593   26.5729   -1.2223 H         1 UNK         0.2990 
     95 H95        23.5458   25.4761   -1.5078 H         1 UNK         0.0690 
     96 H96        23.7511   25.7438   -3.9718 H         1 UNK         0.0788 
     97 H97        25.0168   26.9550   -3.7588 H         1 UNK         0.0788 
     98 H98        23.3754   27.2862   -3.2224 H         1 UNK         0.0788 
     99 H99        25.9626   24.8249   -2.9343 H         1 UNK         0.2993 
    100 H100       26.7543   22.1277   -0.8641 H         1 UNK         0.0949 
    101 H101       26.2162   22.3728   -3.3129 H         1 UNK         0.0767 
    102 H102       27.4844   23.5860   -3.4687 H         1 UNK         0.0767 
    103 H103       27.8892   21.9347   -3.0270 H         1 UNK         0.0767 
    104 H104       28.6994   22.9042   -0.1678 H         1 UNK         0.3013 
    105 H105       29.0993   26.9237    4.7002 H         1 UNK         0.3121 
    106 H106       29.2739   28.2259    6.4517 H         1 UNK         0.0774 
    107 H107       27.5241   28.4706    8.1364 H         1 UNK         0.0815 
    108 H108       26.2864   27.9201    7.0225 H         1 UNK         0.0815 
    109 H109       27.5391   26.8080    7.5760 H         1 UNK         0.0815 
    110 H110       27.9630   29.1912    3.6853 H         1 UNK         0.2987 
    111 H111       27.5348   32.0366    4.5376 H         1 UNK         0.0949 
    112 H112       26.6468   30.6223    1.9703 H         1 UNK         0.0806 
    113 H113       25.5970   30.9778    3.3413 H         1 UNK         0.0806 
    114 H114       26.3135   32.2878    2.4149 H         1 UNK         0.0806 
    115 H115       29.3928   29.8245    2.4672 H         1 UNK         0.3010 
    116 H116       30.7855   31.7515    0.9201 H         1 UNK         0.0829 
    117 H117       32.3011   29.8064    0.4488 H         1 UNK         0.0813 
    118 H118       31.5801   28.9061    1.7780 H         1 UNK         0.0813 
    119 H119       30.6200   29.3192    0.3606 H         1 UNK         0.0813 
    120 H120       32.8686   32.6154    1.1091 H         1 UNK         0.3038 
    121 H121       33.8474   33.3733    3.6466 H         1 UNK         0.0769 
    122 H122       35.7950   34.2527    2.3432 H         1 UNK         0.0811 
    123 H123       34.2740   34.6762    1.5774 H         1 UNK         0.0811 
    124 H124       35.2602   33.3682    0.9212 H         1 UNK         0.0811 
    125 H125       34.5752   30.5589    1.6973 H         1 UNK         0.3204 
    126 H126       36.9314   29.6128    2.9576 H         1 UNK         0.0748 
    127 H127       36.2353   27.4223    1.9591 H         1 UNK         0.0771 
    128 H128       34.6432   28.0752    1.6011 H         1 UNK         0.0771 
    129 H129       36.0726   28.7250    0.7947 H         1 UNK         0.0771 
    130 H130       33.6050   29.6724    4.1323 H         1 UNK         0.2980 
    131 H131       34.0824   27.6512    6.1948 H         1 UNK         0.0545 
    132 H132       35.0966   30.9125    5.9782 H         1 UNK         0.3459 
    133 H133       35.1189   31.2121    7.6991 H         1 UNK         0.3459 
    134 H134       31.6407   29.4379    5.8129 H         1 UNK         0.0616 
    135 H135       31.7624   28.0705    6.8869 H         1 UNK         0.0616 
    136 H136       32.7488   25.6254    5.7244 H         1 UNK         0.0634 
    137 H137       31.0869   25.7100    6.2683 H         1 UNK         0.0634 
@<TRIPOS>BOND
     1    1    2 1    
     2    1   72 1    
     3    1   73 1    
     4    1   74 1    
     5    2    3 2    
     6    2    4 am   BACKBONE|DICT|INTERRES
     7    4    5 1    
     8    4   75 1    
     9    5    6 1    
    10    5   35 1    
    11    5   76 1    
    12    6    7 1    
    13    6   77 1    
    14    6   78 1    
    15    7    8 1    
    16    8    9 1    
    17    8   79 1    
    18    8   80 1    
    19    9   10 ar   
    20    9   14 ar   
    21   10   11 ar   
    22   10   81 1    
    23   11   12 ar   
    24   11   71 1    
    25   12   13 ar   
    26   12   82 1    
    27   13   14 ar   
    28   13   15 1    
    29   14   83 1    
    30   15   16 1    
    31   15   84 1    
    32   15   85 1    
    33   16   17 1    
    34   17   18 1    
    35   17   86 1    
    36   17   87 1    
    37   18   19 1    
    38   18   37 1    
    39   18   88 1    
    40   19   20 am   BACKBONE|DICT|INTERRES
    41   19   89 1    
    42   20   21 2    
    43   20   22 1    
    44   22   23 1    
    45   22   24 1    
    46   22   90 1    
    47   23   91 1    
    48   23   92 1    
    49   23   93 1    
    50   24   25 am   BACKBONE|DICT|INTERRES
    51   24   94 1    
    52   25   26 2    
    53   25   27 1    
    54   27   28 1    
    55   27   29 1    
    56   27   95 1    
    57   28   96 1    
    58   28   97 1    
    59   28   98 1    
    60   29   30 am   BACKBONE|DICT|INTERRES
    61   29   99 1    
    62   30   31 2    
    63   30   32 1    
    64   32   33 1    
    65   32   34 1    
    66   32  100 1    
    67   33  101 1    
    68   33  102 1    
    69   33  103 1    
    70   34   35 am   BACKBONE|DICT|INTERRES
    71   34  104 1    
    72   35   36 2    
    73   37   38 2    
    74   37   39 am   BACKBONE|DICT|INTERRES
    75   39   40 1    
    76   39  105 1    
    77   40   41 1    
    78   40   42 1    
    79   40  106 1    
    80   41  107 1    
    81   41  108 1    
    82   41  109 1    
    83   42   43 2    
    84   42   44 am   BACKBONE|DICT|INTERRES
    85   44   45 1    
    86   44  110 1    
    87   45   46 1    
    88   45   47 1    
    89   45  111 1    
    90   46  112 1    
    91   46  113 1    
    92   46  114 1    
    93   47   48 2    
    94   47   49 am   BACKBONE|DICT|INTERRES
    95   49   50 1    
    96   49  115 1    
    97   50   51 1    
    98   50   52 1    
    99   50  116 1    
   100   51  117 1    
   101   51  118 1    
   102   51  119 1    
   103   52   53 2    
   104   52   54 am   BACKBONE|DICT|INTERRES
   105   54   55 1    
   106   54  120 1    
   107   55   56 1    
   108   55   57 1    
   109   55  121 1    
   110   56  122 1    
   111   56  123 1    
   112   56  124 1    
   113   57   58 2    
   114   57   59 am   BACKBONE|DICT|INTERRES
   115   59   60 1    
   116   59  125 1    
   117   60   61 1    
   118   60   62 1    
   119   60  126 1    
   120   61  127 1    
   121   61  128 1    
   122   61  129 1    
   123   62   63 2    
   124   62   64 am   BACKBONE|DICT|INTERRES
   125   64   65 1    
   126   64  130 1    
   127   65   66 1    
   128   65   69 1    
   129   65  131 1    
   130   66   67 am   BACKBONE|DICT|INTERRES
   131   66   68 2    
   132   67  132 1    
   133   67  133 1    
   134   69   70 1    
   135   69  134 1    
   136   69  135 1    
   137   70   71 1    
   138   71  136 1    
   139   71  137 1    
@<TRIPOS>SUBSTRUCTURE
     1 UNK         1 GROUP             0       ****    0 ROOT    
