@<TRIPOS>MOLECULE
3R136
137   139    1
SMALL
USER_CHARGES


@<TRIPOS>ATOM
      1 CA         32.5139   21.7303   -2.5905 C.3       0 UNK        -0.1979 
      2 C          31.5566   22.3407   -1.5781 C.2       0 UNK         0.4864 
      3 O          31.4485   23.5651   -1.4970 O.2       0 UNK        -0.5359 
      4 N          30.8452   21.4997   -0.8164 N.am      1 UNK        -0.4318 
      5 CA         29.9057   21.8755    0.2510 C.3       1 UNK         0.0824 
      6 C6         29.7154   20.7188    1.2705 C.3       12 UNK        -0.0944 
      7 S7         31.2847   20.1135    1.9821 S.3       12 UNK        -0.2672 
      8 C8         31.1679   20.6806    3.7077 C.3       12 UNK         0.0333 
      9 C9         31.3918   22.1804    3.8306 C.ar      12 UNK        -0.0807 
     10 C10        32.6888   22.6988    3.7718 C.ar      12 UNK        -0.0894 
     11 C11        32.9109   24.0723    3.9051 C.ar      12 UNK        -0.0804 
     12 C12        31.8239   24.9293    4.1050 C.ar      12 UNK        -0.0824 
     13 C13        30.5220   24.4227    4.1654 C.ar      12 UNK        -0.0762 
     14 C14        30.3118   23.0471    4.0255 C.ar      12 UNK        -0.0782 
     15 C15        29.3406   25.3535    4.3991 C.3       12 UNK         0.0230 
     16 S16        28.4945   25.7591    2.8413 S.3       12 UNK        -0.2608 
     17 C17        29.6229   27.0044    2.1134 C.3       12 UNK        -0.0989 
     18 CA         28.9810   28.3923    1.8569 C.3       5 UNK         0.0716 
     19 N          28.0121   28.3666    0.7539 N.am      5 UNK        -0.4135 
     20 C          27.3999   29.4466    0.2382 C.2       4 UNK         0.5031 
     21 O          27.6244   30.5961    0.6189 O.2       4 UNK        -0.5229 
     22 CA         26.3194   29.2316   -0.8395 C.3       4 UNK         0.0329 
     23 CB         26.9011   29.5062   -2.2348 C.3       4 UNK        -0.2001 
     24 N          25.7066   27.9014   -0.8258 N.am      4 UNK        -0.4303 
     25 C          25.0854   27.3360    0.2193 C.2       3 UNK         0.5044 
     26 O          24.8633   27.9216    1.2803 O.2       3 UNK        -0.5152 
     27 CA         24.7005   25.8496    0.0857 C.3       3 UNK         0.0319 
     28 CB         23.2099   25.7172   -0.2654 C.3       3 UNK        -0.2001 
     29 N          25.4928   25.0553   -0.8691 N.am      3 UNK        -0.4354 
     30 C          26.8308   24.9594   -0.9087 C.2       2 UNK         0.4964 
     31 O          27.5949   25.6655   -0.2501 O.2       2 UNK        -0.5047 
     32 CA         27.4251   23.9365   -1.8864 C.3       2 UNK         0.0288 
     33 CB         27.8416   24.6226   -3.1976 C.3       2 UNK        -0.2113 
     34 N          28.5943   23.2876   -1.2921 N.am      2 UNK        -0.4145 
     35 C          28.5508   22.3737   -0.3136 C.2       1 UNK         0.5006 
     36 O          27.4929   21.9104    0.1205 O.2       1 UNK        -0.5103 
     37 C          28.4297   29.0270    3.1542 C.2       5 UNK         0.5055 
     38 O          29.2123   29.5799    3.9250 O.2       5 UNK        -0.5220 
     39 N          27.1037   28.9812    3.3594 N.am      6 UNK        -0.4450 
     40 CA         26.4190   29.6356    4.4764 C.3       6 UNK         0.0367 
     41 CB         24.9615   29.1520    4.5296 C.3       6 UNK        -0.1929 
     42 C          26.4740   31.1741    4.4097 C.2       6 UNK         0.5070 
     43 O          26.4231   31.8192    5.4572 O.2       6 UNK        -0.5237 
     44 N          26.5786   31.7319    3.1956 N.am      7 UNK        -0.4739 
     45 CA         26.7117   33.1679    2.9478 C.3       7 UNK         0.0276 
     46 CB         25.8435   33.5556    1.7391 C.3       7 UNK        -0.1927 
     47 C          28.1770   33.5560    2.7034 C.2       7 UNK         0.5013 
     48 O          28.6295   34.5730    3.2296 O.2       7 UNK        -0.5193 
     49 N          28.8903   32.7468    1.9077 N.am      8 UNK        -0.4253 
     50 CA         30.2736   32.9883    1.4903 C.3       8 UNK         0.0242 
     51 CB         30.5536   32.1738    0.2155 C.3       8 UNK        -0.2000 
     52 C          31.3272   32.6693    2.5654 C.2       8 UNK         0.4948 
     53 O          32.4873   33.0400    2.3814 O.2       8 UNK        -0.5275 
     54 N          30.9434   31.9459    3.6278 N.am      9 UNK        -0.4246 
     55 CA         31.7578   31.4273    4.7393 C.3       9 UNK         0.0261 
     56 CB         32.4837   32.5518    5.5032 C.3       9 UNK        -0.1959 
     57 C          32.7305   30.3041    4.3356 C.2       9 UNK         0.5033 
     58 O          32.8684   29.3362    5.0860 O.2       9 UNK        -0.5390 
     59 N          33.3691   30.4382    3.1645 N.am      10 UNK        -0.4215 
     60 CA         34.2905   29.4945    2.5270 C.3       10 UNK         0.0240 
     61 CB         33.5157   28.2587    2.0116 C.3       10 UNK        -0.1982 
     62 C          35.4816   29.1592    3.4444 C.2       10 UNK         0.4970 
     63 O          36.3630   30.0027    3.6144 O.2       10 UNK        -0.4916 
     64 N          35.4791   27.9522    4.0194 N.am      11 UNK        -0.4279 
     65 CA         36.4541   27.4778    5.0095 C.3       11 UNK         0.1003 
     66 C          36.2968   28.0978    6.4304 C.2       11 UNK         0.5709 
     67 N          35.2081   28.7913    6.7446 N.am      11 UNK        -0.7358 
     68 O          37.1926   27.9578    7.2601 O.2       11 UNK        -0.4999 
     69 C69        36.5111   25.9262    5.0414 C.3       12 UNK        -0.0954 
     70 S70        34.9206   25.1352    5.4709 S.3       12 UNK        -0.2268 
     71 C71        34.3220   24.6328    3.8286 C.3       12 UNK         0.0203 
     72 H72        33.5310   22.0688   -2.3949 H         1 UNK         0.0888 
     73 H73        32.5062   20.6411   -2.5537 H         1 UNK         0.0888 
     74 H74        32.2396   22.0382   -3.5991 H         1 UNK         0.0888 
     75 H75        30.9691   20.5049   -0.9401 H         1 UNK         0.3017 
     76 H76        30.3358   22.7198    0.7955 H         1 UNK         0.0873 
     77 H77        29.0540   21.0304    2.0808 H         1 UNK         0.0745 
     78 H78        29.2224   19.8700    0.7927 H         1 UNK         0.0745 
     79 H79        31.9207   20.1564    4.2984 H         1 UNK         0.0705 
     80 H80        30.2026   20.3921    4.1269 H         1 UNK         0.0705 
     81 H81        33.5249   22.0292    3.6213 H         1 UNK         0.1334 
     82 H82        31.9957   25.9899    4.2257 H         1 UNK         0.1417 
     83 H83        29.3055   22.6534    4.0740 H         1 UNK         0.1562 
     84 H84        29.6559   26.2706    4.8998 H         1 UNK         0.0748 
     85 H85        28.6268   24.8732    5.0700 H         1 UNK         0.0748 
     86 H86        30.4946   27.1284    2.7564 H         1 UNK         0.0940 
     87 H87        30.0121   26.5977    1.1785 H         1 UNK         0.0940 
     88 H88        29.7856   29.0512    1.5249 H         1 UNK         0.0703 
     89 H89        27.7767   27.4430    0.3950 H         1 UNK         0.3081 
     90 H90        25.5267   29.9575   -0.6475 H         1 UNK         0.0719 
     91 H91        27.6802   28.7884   -2.4954 H         1 UNK         0.0809 
     92 H92        26.1295   29.4607   -3.0037 H         1 UNK         0.0809 
     93 H93        27.3453   30.5017   -2.2836 H         1 UNK         0.0809 
     94 H94        25.8529   27.3291   -1.6441 H         1 UNK         0.2990 
     95 H95        24.8578   25.4009    1.0687 H         1 UNK         0.0690 
     96 H96        22.5903   26.2731    0.4402 H         1 UNK         0.0788 
     97 H97        22.9950   26.1039   -1.2625 H         1 UNK         0.0788 
     98 H98        22.8825   24.6780   -0.2288 H         1 UNK         0.0788 
     99 H99        24.9595   24.4557   -1.4827 H         1 UNK         0.2993 
    100 H100       26.6776   23.1716   -2.1080 H         1 UNK         0.0949 
    101 H101       26.9865   25.0974   -3.6806 H         1 UNK         0.0767 
    102 H102       28.5923   25.3958   -3.0270 H         1 UNK         0.0767 
    103 H103       28.2560   23.9046   -3.9058 H         1 UNK         0.0767 
    104 H104       29.5096   23.6429   -1.5536 H         1 UNK         0.3013 
    105 H105       26.5193   28.5100    2.6780 H         1 UNK         0.3121 
    106 H106       26.9156   29.3288    5.3995 H         1 UNK         0.0774 
    107 H107       24.4351   29.5910    5.3782 H         1 UNK         0.0815 
    108 H108       24.4129   29.4264    3.6275 H         1 UNK         0.0815 
    109 H109       24.9059   28.0687    4.6387 H         1 UNK         0.0815 
    110 H110       26.6564   31.1254    2.3873 H         1 UNK         0.2987 
    111 H111       26.3565   33.7345    3.8117 H         1 UNK         0.0949 
    112 H112       26.1399   33.0213    0.8353 H         1 UNK         0.0806 
    113 H113       24.7911   33.3397    1.9241 H         1 UNK         0.0806 
    114 H114       25.9226   34.6230    1.5284 H         1 UNK         0.0806 
    115 H115       28.4241   31.9465    1.4823 H         1 UNK         0.3010 
    116 H116       30.3766   34.0476    1.2452 H         1 UNK         0.0829 
    117 H117       31.5554   32.3741   -0.1670 H         1 UNK         0.0813 
    118 H118       30.4826   31.1012    0.3975 H         1 UNK         0.0813 
    119 H119       29.8493   32.4243   -0.5782 H         1 UNK         0.0813 
    120 H120       29.9893   31.6047    3.6316 H         1 UNK         0.3038 
    121 H121       31.0435   30.9779    5.4310 H         1 UNK         0.0769 
    122 H122       32.9767   32.1573    6.3928 H         1 UNK         0.0811 
    123 H123       31.7856   33.3211    5.8331 H         1 UNK         0.0811 
    124 H124       33.2522   33.0324    4.8975 H         1 UNK         0.0811 
    125 H125       33.2273   31.3222    2.6805 H         1 UNK         0.3204 
    126 H126       34.7081   30.0064    1.6587 H         1 UNK         0.0748 
    127 H127       34.1835   27.5506    1.5189 H         1 UNK         0.0771 
    128 H128       32.9966   27.7303    2.8109 H         1 UNK         0.0771 
    129 H129       32.7652   28.5511    1.2769 H         1 UNK         0.0771 
    130 H130       34.6777   27.3576    3.8789 H         1 UNK         0.2980 
    131 H131       37.4348   27.8125    4.6657 H         1 UNK         0.0545 
    132 H132       35.1286   29.1868    7.6672 H         1 UNK         0.3459 
    133 H133       34.4463   28.9022    6.0809 H         1 UNK         0.3459 
    134 H134       37.2634   25.5874    5.7559 H         1 UNK         0.0616 
    135 H135       36.8456   25.5520    4.0726 H         1 UNK         0.0616 
    136 H136       34.3345   25.4847    3.1490 H         1 UNK         0.0634 
    137 H137       35.0081   23.8948    3.4097 H         1 UNK         0.0634 
@<TRIPOS>BOND
     1    1    2 1    
     2    1   72 1    
     3    1   73 1    
     4    1   74 1    
     5    2    3 2    
     6    2    4 am   BACKBONE|DICT|INTERRES
     7    4    5 1    
     8    4   75 1    
     9    5    6 1    
    10    5   35 1    
    11    5   76 1    
    12    6    7 1    
    13    6   77 1    
    14    6   78 1    
    15    7    8 1    
    16    8    9 1    
    17    8   79 1    
    18    8   80 1    
    19    9   10 ar   
    20    9   14 ar   
    21   10   11 ar   
    22   10   81 1    
    23   11   12 ar   
    24   11   71 1    
    25   12   13 ar   
    26   12   82 1    
    27   13   14 ar   
    28   13   15 1    
    29   14   83 1    
    30   15   16 1    
    31   15   84 1    
    32   15   85 1    
    33   16   17 1    
    34   17   18 1    
    35   17   86 1    
    36   17   87 1    
    37   18   19 1    
    38   18   37 1    
    39   18   88 1    
    40   19   20 am   BACKBONE|DICT|INTERRES
    41   19   89 1    
    42   20   21 2    
    43   20   22 1    
    44   22   23 1    
    45   22   24 1    
    46   22   90 1    
    47   23   91 1    
    48   23   92 1    
    49   23   93 1    
    50   24   25 am   BACKBONE|DICT|INTERRES
    51   24   94 1    
    52   25   26 2    
    53   25   27 1    
    54   27   28 1    
    55   27   29 1    
    56   27   95 1    
    57   28   96 1    
    58   28   97 1    
    59   28   98 1    
    60   29   30 am   BACKBONE|DICT|INTERRES
    61   29   99 1    
    62   30   31 2    
    63   30   32 1    
    64   32   33 1    
    65   32   34 1    
    66   32  100 1    
    67   33  101 1    
    68   33  102 1    
    69   33  103 1    
    70   34   35 am   BACKBONE|DICT|INTERRES
    71   34  104 1    
    72   35   36 2    
    73   37   38 2    
    74   37   39 am   BACKBONE|DICT|INTERRES
    75   39   40 1    
    76   39  105 1    
    77   40   41 1    
    78   40   42 1    
    79   40  106 1    
    80   41  107 1    
    81   41  108 1    
    82   41  109 1    
    83   42   43 2    
    84   42   44 am   BACKBONE|DICT|INTERRES
    85   44   45 1    
    86   44  110 1    
    87   45   46 1    
    88   45   47 1    
    89   45  111 1    
    90   46  112 1    
    91   46  113 1    
    92   46  114 1    
    93   47   48 2    
    94   47   49 am   BACKBONE|DICT|INTERRES
    95   49   50 1    
    96   49  115 1    
    97   50   51 1    
    98   50   52 1    
    99   50  116 1    
   100   51  117 1    
   101   51  118 1    
   102   51  119 1    
   103   52   53 2    
   104   52   54 am   BACKBONE|DICT|INTERRES
   105   54   55 1    
   106   54  120 1    
   107   55   56 1    
   108   55   57 1    
   109   55  121 1    
   110   56  122 1    
   111   56  123 1    
   112   56  124 1    
   113   57   58 2    
   114   57   59 am   BACKBONE|DICT|INTERRES
   115   59   60 1    
   116   59  125 1    
   117   60   61 1    
   118   60   62 1    
   119   60  126 1    
   120   61  127 1    
   121   61  128 1    
   122   61  129 1    
   123   62   63 2    
   124   62   64 am   BACKBONE|DICT|INTERRES
   125   64   65 1    
   126   64  130 1    
   127   65   66 1    
   128   65   69 1    
   129   65  131 1    
   130   66   67 am   BACKBONE|DICT|INTERRES
   131   66   68 2    
   132   67  132 1    
   133   67  133 1    
   134   69   70 1    
   135   69  134 1    
   136   69  135 1    
   137   70   71 1    
   138   71  136 1    
   139   71  137 1    
@<TRIPOS>SUBSTRUCTURE
     1 UNK         1 GROUP             0       ****    0 ROOT    
