@<TRIPOS>MOLECULE
3R136
137   139    1
SMALL
USER_CHARGES


@<TRIPOS>ATOM
      1 CA         27.7649   25.9191    5.5588 C.3       0 UNK        -0.1979 
      2 C          27.6360   24.8757    4.4648 C.2       0 UNK         0.4864 
      3 O          26.9770   23.8545    4.6665 O.2       0 UNK        -0.5359 
      4 N          28.2291   25.1289    3.2918 N.am      1 UNK        -0.4318 
      5 CA         28.2148   24.2319    2.1318 C.3       1 UNK         0.0824 
      6 C6         29.5335   24.3287    1.3278 C.3       12 UNK        -0.0944 
      7 S7         30.9259   23.6123    2.2728 S.3       12 UNK        -0.2672 
      8 C8         31.8192   25.0993    2.8509 C.3       12 UNK         0.0333 
      9 C9         32.7600   25.7479    1.8320 C.ar      12 UNK        -0.0807 
     10 C10        33.7226   26.6527    2.2935 C.ar      12 UNK        -0.0894 
     11 C11        34.5767   27.3087    1.4006 C.ar      12 UNK        -0.0804 
     12 C12        34.4545   27.0698    0.0293 C.ar      12 UNK        -0.0824 
     13 C13        33.5028   26.1650   -0.4483 C.ar      12 UNK        -0.0762 
     14 C14        32.6774   25.4948    0.4568 C.ar      12 UNK        -0.0782 
     15 C15        33.3695   25.9066   -1.9415 C.3       12 UNK         0.0230 
     16 S16        32.1944   27.0595   -2.7193 S.3       12 UNK        -0.2608 
     17 C17        30.5855   26.3049   -2.2996 C.3       12 UNK        -0.0989 
     18 CA         29.4064   27.2961   -2.4679 C.3       5 UNK         0.0716 
     19 N          28.1273   26.5974   -2.5039 N.am      5 UNK        -0.4135 
     20 C          27.2284   26.6744   -3.4924 C.2       4 UNK         0.5031 
     21 O          27.4579   27.1297   -4.6137 O.2       4 UNK        -0.5229 
     22 CA         25.8100   26.2051   -3.1388 C.3       4 UNK         0.0329 
     23 CB         25.6813   24.6806   -3.2886 C.3       4 UNK        -0.2001 
     24 N          25.4780   26.5891   -1.7666 N.am      4 UNK        -0.4303 
     25 C          25.0508   27.8021   -1.3795 C.2       3 UNK         0.5044 
     26 O          24.7645   28.7045   -2.1678 O.2       3 UNK        -0.5152 
     27 CA         24.9444   28.0551    0.1437 C.3       3 UNK         0.0319 
     28 CB         23.7729   28.9854    0.5211 C.3       3 UNK        -0.2001 
     29 N          24.9249   26.8158    0.9329 N.am      3 UNK        -0.4354 
     30 C          24.0153   25.8300    0.8698 C.2       2 UNK         0.4964 
     31 O          22.9223   25.9455    0.3146 O.2       2 UNK        -0.5047 
     32 CA         24.4059   24.4601    1.4642 C.3       2 UNK         0.0288 
     33 CB         24.1149   23.3200    0.4652 C.3       2 UNK        -0.2113 
     34 N          25.7890   24.3440    1.9535 N.am      2 UNK        -0.4145 
     35 C          26.9489   24.4966    1.2914 C.2       1 UNK         0.5006 
     36 O          27.0332   24.8675    0.1156 O.2       1 UNK        -0.5103 
     37 C          29.2593   28.3681   -1.3678 C.2       5 UNK         0.5055 
     38 O          28.3246   29.1695   -1.4445 O.2       5 UNK        -0.5220 
     39 N          30.1421   28.3800   -0.3616 N.am      6 UNK        -0.4450 
     40 CA         30.0441   29.2787    0.7880 C.3       6 UNK         0.0367 
     41 CB         31.3622   29.2489    1.5714 C.3       6 UNK        -0.1929 
     42 C          28.8714   28.8981    1.7075 C.2       6 UNK         0.5070 
     43 O          28.6674   27.7153    1.9929 O.2       6 UNK        -0.5237 
     44 N          28.1482   29.9169    2.1878 N.am      7 UNK        -0.4739 
     45 CA         27.0940   29.7754    3.1977 C.3       7 UNK         0.0276 
     46 CB         26.1389   30.9757    3.1026 C.3       7 UNK        -0.1927 
     47 C          27.6570   29.6356    4.6252 C.2       7 UNK         0.5013 
     48 O          26.9390   29.1695    5.5098 O.2       7 UNK        -0.5193 
     49 N          28.9235   30.0255    4.8211 N.am      8 UNK        -0.4253 
     50 CA         29.7041   29.7809    6.0321 C.3       8 UNK         0.0242 
     51 CB         30.6975   30.9373    6.2285 C.3       8 UNK        -0.2000 
     52 C          30.4565   28.4504    5.8884 C.2       8 UNK         0.4948 
     53 O          30.8470   28.0884    4.7773 O.2       8 UNK        -0.5275 
     54 N          30.6589   27.7482    7.0108 N.am      9 UNK        -0.4246 
     55 CA         31.3318   26.4431    7.0572 C.3       9 UNK         0.0261 
     56 CB         31.0814   25.7934    8.4278 C.3       9 UNK        -0.1959 
     57 C          32.8413   26.5019    6.7542 C.2       9 UNK         0.5033 
     58 O          33.4139   25.4864    6.3570 O.2       9 UNK        -0.5390 
     59 N          33.4524   27.6761    6.9392 N.am      10 UNK        -0.4215 
     60 CA         34.8315   27.9874    6.5874 C.3       10 UNK         0.0240 
     61 CB         35.7336   27.8389    7.8243 C.3       10 UNK        -0.1982 
     62 C          34.8579   29.4201    6.0482 C.2       10 UNK         0.4970 
     63 O          34.0626   30.2512    6.4948 O.2       10 UNK        -0.4916 
     64 N          35.7664   29.6737    5.1049 N.am      11 UNK        -0.4279 
     65 CA         35.9504   30.9727    4.4459 C.3       11 UNK         0.1003 
     66 C          36.9986   31.8402    5.1906 C.2       11 UNK         0.5709 
     67 N          36.8907   33.1584    5.0956 N.am      11 UNK        -0.7358 
     68 O          37.9240   31.3349    5.8247 O.2       11 UNK        -0.4999 
     69 C69        36.3291   30.7905    2.9530 C.3       12 UNK        -0.0954 
     70 S70        34.9996   29.9696    2.0108 S.3       12 UNK        -0.2268 
     71 C71        35.6351   28.2689    1.9189 C.3       12 UNK         0.0203 
     72 H72        26.7798   26.2494    5.8873 H         1 UNK         0.0888 
     73 H73        28.2948   25.5069    6.4168 H         1 UNK         0.0888 
     74 H74        28.3105   26.7890    5.2028 H         1 UNK         0.0888 
     75 H75        28.6577   26.0349    3.1208 H         1 UNK         0.3017 
     76 H76        28.1274   23.1991    2.4773 H         1 UNK         0.0873 
     77 H77        29.7469   25.3634    1.0539 H         1 UNK         0.0745 
     78 H78        29.4573   23.7708    0.3926 H         1 UNK         0.0745 
     79 H79        32.3979   24.8123    3.7302 H         1 UNK         0.0705 
     80 H80        31.0977   25.8435    3.1908 H         1 UNK         0.0705 
     81 H81        33.7982   26.8570    3.3534 H         1 UNK         0.1334 
     82 H82        35.1013   27.5876   -0.6661 H         1 UNK         0.1417 
     83 H83        31.9646   24.7807    0.0750 H         1 UNK         0.1562 
     84 H84        33.0592   24.8775   -2.1302 H         1 UNK         0.0748 
     85 H85        34.3421   26.0214   -2.4225 H         1 UNK         0.0748 
     86 H86        30.5914   25.8705   -1.3020 H         1 UNK         0.0940 
     87 H87        30.4497   25.4631   -2.9811 H         1 UNK         0.0940 
     88 H88        29.5532   27.8398   -3.4037 H         1 UNK         0.0703 
     89 H89        27.8203   26.2072   -1.6218 H         1 UNK         0.3081 
     90 H90        25.1078   26.6819   -3.8261 H         1 UNK         0.0719 
     91 H91        25.9161   24.3684   -4.3070 H         1 UNK         0.0809 
     92 H92        26.3569   24.1468   -2.6186 H         1 UNK         0.0809 
     93 H93        24.6658   24.3474   -3.0733 H         1 UNK         0.0809 
     94 H94        25.7180   25.9190   -1.0438 H         1 UNK         0.2990 
     95 H95        25.8683   28.5668    0.4185 H         1 UNK         0.0690 
     96 H96        23.7234   29.1434    1.5984 H         1 UNK         0.0788 
     97 H97        22.8130   28.5849    0.1945 H         1 UNK         0.0788 
     98 H98        23.8888   29.9652    0.0564 H         1 UNK         0.0788 
     99 H99        25.7904   26.6020    1.4092 H         1 UNK         0.2993 
    100 H100       23.7619   24.3174    2.3334 H         1 UNK         0.0949 
    101 H101       24.6969   23.4266   -0.4510 H         1 UNK         0.0767 
    102 H102       24.3463   22.3462    0.8970 H         1 UNK         0.0767 
    103 H103       23.0620   23.3012    0.1807 H         1 UNK         0.0767 
    104 H104       25.8764   24.0814    2.9313 H         1 UNK         0.3013 
    105 H105       30.8963   27.7084   -0.3547 H         1 UNK         0.3121 
    106 H106       29.8940   30.2927    0.4109 H         1 UNK         0.0774 
    107 H107       31.5088   28.2882    2.0634 H         1 UNK         0.0815 
    108 H108       32.2189   29.4310    0.9229 H         1 UNK         0.0815 
    109 H109       31.3753   30.0105    2.3517 H         1 UNK         0.0815 
    110 H110       28.3639   30.8571    1.8865 H         1 UNK         0.2987 
    111 H111       26.5223   28.8688    2.9858 H         1 UNK         0.0949 
    112 H112       25.6918   31.0490    2.1110 H         1 UNK         0.0806 
    113 H113       25.3210   30.8801    3.8181 H         1 UNK         0.0806 
    114 H114       26.6481   31.9168    3.3134 H         1 UNK         0.0806 
    115 H115       29.4460   30.3311    4.0143 H         1 UNK         0.3010 
    116 H116       29.0400   29.7320    6.8980 H         1 UNK         0.0829 
    117 H117       31.4112   31.0028    5.4056 H         1 UNK         0.0813 
    118 H118       31.2734   30.8083    7.1458 H         1 UNK         0.0813 
    119 H119       30.1823   31.8951    6.3028 H         1 UNK         0.0813 
    120 H120       30.3152   28.1131    7.8883 H         1 UNK         0.3038 
    121 H121       30.8802   25.8070    6.2924 H         1 UNK         0.0769 
    122 H122       30.0160   25.6605    8.6168 H         1 UNK         0.0811 
    123 H123       31.4967   26.3909    9.2403 H         1 UNK         0.0811 
    124 H124       31.5428   24.8062    8.4814 H         1 UNK         0.0811 
    125 H125       32.9000   28.4802    7.2078 H         1 UNK         0.3204 
    126 H126       35.1744   27.3111    5.8009 H         1 UNK         0.0748 
    127 H127       35.4244   28.5052    8.6308 H         1 UNK         0.0771 
    128 H128       35.7134   26.8184    8.2073 H         1 UNK         0.0771 
    129 H129       36.7708   28.0753    7.5834 H         1 UNK         0.0771 
    130 H130       36.4313   28.9582    4.8542 H         1 UNK         0.2980 
    131 H131       35.0035   31.5163    4.4789 H         1 UNK         0.0545 
    132 H132       37.5694   33.7399    5.5619 H         1 UNK         0.3459 
    133 H133       36.1433   33.5844    4.5697 H         1 UNK         0.3459 
    134 H134       37.2604   30.2305    2.8488 H         1 UNK         0.0616 
    135 H135       36.5039   31.7603    2.4836 H         1 UNK         0.0616 
    136 H136       35.9706   27.9449    2.9042 H         1 UNK         0.0634 
    137 H137       36.5138   28.2482    1.2724 H         1 UNK         0.0634 
@<TRIPOS>BOND
     1    1    2 1    
     2    1   72 1    
     3    1   73 1    
     4    1   74 1    
     5    2    3 2    
     6    2    4 am   BACKBONE|DICT|INTERRES
     7    4    5 1    
     8    4   75 1    
     9    5    6 1    
    10    5   35 1    
    11    5   76 1    
    12    6    7 1    
    13    6   77 1    
    14    6   78 1    
    15    7    8 1    
    16    8    9 1    
    17    8   79 1    
    18    8   80 1    
    19    9   10 ar   
    20    9   14 ar   
    21   10   11 ar   
    22   10   81 1    
    23   11   12 ar   
    24   11   71 1    
    25   12   13 ar   
    26   12   82 1    
    27   13   14 ar   
    28   13   15 1    
    29   14   83 1    
    30   15   16 1    
    31   15   84 1    
    32   15   85 1    
    33   16   17 1    
    34   17   18 1    
    35   17   86 1    
    36   17   87 1    
    37   18   19 1    
    38   18   37 1    
    39   18   88 1    
    40   19   20 am   BACKBONE|DICT|INTERRES
    41   19   89 1    
    42   20   21 2    
    43   20   22 1    
    44   22   23 1    
    45   22   24 1    
    46   22   90 1    
    47   23   91 1    
    48   23   92 1    
    49   23   93 1    
    50   24   25 am   BACKBONE|DICT|INTERRES
    51   24   94 1    
    52   25   26 2    
    53   25   27 1    
    54   27   28 1    
    55   27   29 1    
    56   27   95 1    
    57   28   96 1    
    58   28   97 1    
    59   28   98 1    
    60   29   30 am   BACKBONE|DICT|INTERRES
    61   29   99 1    
    62   30   31 2    
    63   30   32 1    
    64   32   33 1    
    65   32   34 1    
    66   32  100 1    
    67   33  101 1    
    68   33  102 1    
    69   33  103 1    
    70   34   35 am   BACKBONE|DICT|INTERRES
    71   34  104 1    
    72   35   36 2    
    73   37   38 2    
    74   37   39 am   BACKBONE|DICT|INTERRES
    75   39   40 1    
    76   39  105 1    
    77   40   41 1    
    78   40   42 1    
    79   40  106 1    
    80   41  107 1    
    81   41  108 1    
    82   41  109 1    
    83   42   43 2    
    84   42   44 am   BACKBONE|DICT|INTERRES
    85   44   45 1    
    86   44  110 1    
    87   45   46 1    
    88   45   47 1    
    89   45  111 1    
    90   46  112 1    
    91   46  113 1    
    92   46  114 1    
    93   47   48 2    
    94   47   49 am   BACKBONE|DICT|INTERRES
    95   49   50 1    
    96   49  115 1    
    97   50   51 1    
    98   50   52 1    
    99   50  116 1    
   100   51  117 1    
   101   51  118 1    
   102   51  119 1    
   103   52   53 2    
   104   52   54 am   BACKBONE|DICT|INTERRES
   105   54   55 1    
   106   54  120 1    
   107   55   56 1    
   108   55   57 1    
   109   55  121 1    
   110   56  122 1    
   111   56  123 1    
   112   56  124 1    
   113   57   58 2    
   114   57   59 am   BACKBONE|DICT|INTERRES
   115   59   60 1    
   116   59  125 1    
   117   60   61 1    
   118   60   62 1    
   119   60  126 1    
   120   61  127 1    
   121   61  128 1    
   122   61  129 1    
   123   62   63 2    
   124   62   64 am   BACKBONE|DICT|INTERRES
   125   64   65 1    
   126   64  130 1    
   127   65   66 1    
   128   65   69 1    
   129   65  131 1    
   130   66   67 am   BACKBONE|DICT|INTERRES
   131   66   68 2    
   132   67  132 1    
   133   67  133 1    
   134   69   70 1    
   135   69  134 1    
   136   69  135 1    
   137   70   71 1    
   138   71  136 1    
   139   71  137 1    
@<TRIPOS>SUBSTRUCTURE
     1 UNK         1 GROUP             0       ****    0 ROOT    
