@<TRIPOS>MOLECULE
3R136
137   139    1
SMALL
USER_CHARGES


@<TRIPOS>ATOM
      1 CA         30.0884   30.7981   -3.6787 C.3       0 UNK        -0.1979 
      2 C          29.3096   30.0202   -2.6285 C.2       0 UNK         0.4864 
      3 O          28.1493   30.3391   -2.3678 O.2       0 UNK        -0.5359 
      4 N          29.9406   29.0040   -2.0225 N.am      1 UNK        -0.4318 
      5 CA         29.3439   28.1537   -0.9842 C.3       1 UNK         0.0824 
      6 C6         30.4363   27.4118   -0.1752 C.3       12 UNK        -0.0944 
      7 S7         29.9131   27.0697    1.5327 S.3       12 UNK        -0.2672 
      8 C8         31.1940   25.8722    2.0085 C.3       12 UNK         0.0333 
      9 C9         31.0563   25.5198    3.4769 C.ar      12 UNK        -0.0807 
     10 C10        31.7632   26.2404    4.4399 C.ar      12 UNK        -0.0894 
     11 C11        31.6077   25.9498    5.7972 C.ar      12 UNK        -0.0804 
     12 C12        30.6974   24.9618    6.1897 C.ar      12 UNK        -0.0824 
     13 C13        29.9748   24.2368    5.2336 C.ar      12 UNK        -0.0762 
     14 C14        30.1979   24.4937    3.8758 C.ar      12 UNK        -0.0782 
     15 C15        28.9771   23.1703    5.6873 C.3       12 UNK         0.0230 
     16 S16        27.4877   23.0189    4.6326 S.3       12 UNK        -0.2608 
     17 C17        26.6828   24.6470    4.8374 C.3       12 UNK        -0.0989 
     18 CA         26.8858   25.5692    3.6025 C.3       5 UNK         0.0716 
     19 N          26.4194   25.0053    2.3317 N.am      5 UNK        -0.4135 
     20 C          25.1512   24.7380    1.9892 C.2       4 UNK         0.5031 
     21 O          24.1921   24.8452    2.7547 O.2       4 UNK        -0.5229 
     22 CA         24.8960   24.3123    0.5335 C.3       4 UNK         0.0329 
     23 CB         24.0773   25.3895   -0.1998 C.3       4 UNK        -0.2001 
     24 N          26.1359   24.0949   -0.2145 N.am      4 UNK        -0.4303 
     25 C          26.7240   22.9063   -0.4140 C.2       3 UNK         0.5044 
     26 O          26.3050   21.8532    0.0685 O.2       3 UNK        -0.5152 
     27 CA         27.9999   22.8893   -1.2887 C.3       3 UNK         0.0319 
     28 CB         28.1251   21.5992   -2.1269 C.3       3 UNK        -0.2001 
     29 N          28.1523   24.0842   -2.1326 N.am      3 UNK        -0.4354 
     30 C          27.3149   24.5231   -3.0872 C.2       2 UNK         0.4964 
     31 O          26.3564   23.8726   -3.5057 O.2       2 UNK        -0.5047 
     32 CA         27.5599   25.9439   -3.6411 C.3       2 UNK         0.0288 
     33 CB         26.2328   26.6863   -3.9093 C.3       2 UNK        -0.2113 
     34 N          28.4468   26.7914   -2.8261 N.am      2 UNK        -0.4145 
     35 C          28.2878   27.1743   -1.5461 C.2       1 UNK         0.5006 
     36 O          27.3791   26.7718   -0.8142 O.2       1 UNK        -0.5103 
     37 C          26.3515   27.0013    3.7969 C.2       5 UNK         0.5055 
     38 O          25.8435   27.3448    4.8655 O.2       5 UNK        -0.5220 
     39 N          26.5097   27.8214    2.7463 N.am      6 UNK        -0.4450 
     40 CA         26.1962   29.2538    2.7373 C.3       6 UNK         0.0367 
     41 CB         26.0309   29.7170    1.2798 C.3       6 UNK        -0.1929 
     42 C          27.2400   30.1166    3.4802 C.2       6 UNK         0.5070 
     43 O          27.0484   31.3289    3.5739 O.2       6 UNK        -0.5237 
     44 N          28.3050   29.4799    3.9918 N.am      7 UNK        -0.4739 
     45 CA         29.4279   30.0369    4.7486 C.3       7 UNK         0.0276 
     46 CB         28.9601   30.6913    6.0660 C.3       7 UNK        -0.1927 
     47 C          30.2957   30.9612    3.8831 C.2       7 UNK         0.5013 
     48 O          30.3131   32.1772    4.0859 O.2       7 UNK        -0.5193 
     49 N          30.9925   30.3477    2.9226 N.am      8 UNK        -0.4253 
     50 CA         31.9857   30.9814    2.0647 C.3       8 UNK         0.0242 
     51 CB         31.3516   31.2910    0.6979 C.3       8 UNK        -0.2000 
     52 C          33.1824   30.0330    1.9258 C.2       8 UNK         0.4948 
     53 O          33.0566   28.8388    2.2136 O.2       8 UNK        -0.5275 
     54 N          34.3179   30.5820    1.4748 N.am      9 UNK        -0.4246 
     55 CA         35.6023   29.9207    1.2073 C.3       9 UNK         0.0261 
     56 CB         35.4760   28.8761    0.0778 C.3       9 UNK        -0.1959 
     57 C          36.2769   29.3338    2.4606 C.2       9 UNK         0.5033 
     58 O          37.3162   29.8442    2.8807 O.2       9 UNK        -0.5390 
     59 N          35.6861   28.2753    3.0274 N.am      10 UNK        -0.4215 
     60 CA         36.1827   27.5726    4.2142 C.3       10 UNK         0.0240 
     61 CB         35.6702   26.1231    4.1956 C.3       10 UNK        -0.1982 
     62 C          35.8096   28.2700    5.5349 C.2       10 UNK         0.4970 
     63 O          36.4422   27.9936    6.5547 O.2       10 UNK        -0.4916 
     64 N          34.8060   29.1515    5.5008 N.am      11 UNK        -0.4279 
     65 CA         34.3385   29.9709    6.6243 C.3       11 UNK         0.1003 
     66 C          33.6716   31.2775    6.1112 C.2       11 UNK         0.5709 
     67 N          33.1046   32.0888    6.9936 N.am      11 UNK        -0.7358 
     68 O          33.6867   31.5789    4.9191 O.2       11 UNK        -0.4999 
     69 C69        33.4921   29.1656    7.6557 C.3       12 UNK        -0.0954 
     70 S70        31.9716   28.4364    6.9581 S.3       12 UNK        -0.2268 
     71 C71        32.4517   26.6886    6.8242 C.3       12 UNK         0.0203 
     72 H72        31.0995   30.4123   -3.8072 H         1 UNK         0.0888 
     73 H73        29.5792   30.7430   -4.6405 H         1 UNK         0.0888 
     74 H74        30.1604   31.8465   -3.3906 H         1 UNK         0.0888 
     75 H75        30.8965   28.7945   -2.2745 H         1 UNK         0.3017 
     76 H76        28.8197   28.8258   -0.3035 H         1 UNK         0.0873 
     77 H77        30.7433   26.4864   -0.6668 H         1 UNK         0.0745 
     78 H78        31.3392   28.0204   -0.1015 H         1 UNK         0.0745 
     79 H79        32.1817   26.2919    1.8107 H         1 UNK         0.0705 
     80 H80        31.1062   24.9756    1.3930 H         1 UNK         0.0705 
     81 H81        32.4340   27.0314    4.1334 H         1 UNK         0.1334 
     82 H82        30.5599   24.7495    7.2413 H         1 UNK         0.1417 
     83 H83        29.6636   23.9295    3.1240 H         1 UNK         0.1562 
     84 H84        28.6542   23.3636    6.7116 H         1 UNK         0.0748 
     85 H85        29.4885   22.2071    5.7031 H         1 UNK         0.0748 
     86 H86        27.0768   25.1226    5.7377 H         1 UNK         0.0940 
     87 H87        25.6200   24.4861    5.0249 H         1 UNK         0.0940 
     88 H88        27.9560   25.7106    3.4795 H         1 UNK         0.0703 
     89 H89        27.1256   24.8742    1.6232 H         1 UNK         0.3081 
     90 H90        24.3086   23.3921    0.5574 H         1 UNK         0.0719 
     91 H91        23.1198   25.5598    0.2943 H         1 UNK         0.0809 
     92 H92        24.6035   26.3448   -0.2313 H         1 UNK         0.0809 
     93 H93        23.8630   25.0925   -1.2267 H         1 UNK         0.0809 
     94 H94        26.5571   24.9222   -0.6271 H         1 UNK         0.2990 
     95 H95        28.8374   22.9077   -0.5898 H         1 UNK         0.0690 
     96 H96        27.2755   21.4661   -2.7971 H         1 UNK         0.0788 
     97 H97        28.1714   20.7183   -1.4854 H         1 UNK         0.0788 
     98 H98        29.0321   21.6050   -2.7313 H         1 UNK         0.0788 
     99 H99        28.9128   24.6974   -1.8769 H         1 UNK         0.2993 
    100 H100       28.0632   25.8058   -4.5994 H         1 UNK         0.0949 
    101 H101       25.6424   26.7975   -2.9988 H         1 UNK         0.0767 
    102 H102       26.4107   27.6821   -4.3157 H         1 UNK         0.0767 
    103 H103       25.6177   26.1496   -4.6326 H         1 UNK         0.0767 
    104 H104       29.2462   27.1671   -3.3170 H         1 UNK         0.3013 
    105 H105       26.9303   27.4519    1.9040 H         1 UNK         0.3121 
    106 H106       25.2412   29.3974    3.2474 H         1 UNK         0.0774 
    107 H107       25.6964   30.7543    1.2360 H         1 UNK         0.0815 
    108 H108       26.9677   29.6577    0.7278 H         1 UNK         0.0815 
    109 H109       25.2902   29.1169    0.7507 H         1 UNK         0.0815 
    110 H110       28.3618   28.4880    3.8141 H         1 UNK         0.2987 
    111 H111       30.0522   29.1847    5.0158 H         1 UNK         0.0949 
    112 H112       28.3939   29.9887    6.6772 H         1 UNK         0.0806 
    113 H113       29.8169   31.0182    6.6569 H         1 UNK         0.0806 
    114 H114       28.3348   31.5671    5.8918 H         1 UNK         0.0806 
    115 H115       30.9642   29.3381    2.8445 H         1 UNK         0.3010 
    116 H116       32.3403   31.9079    2.5219 H         1 UNK         0.0829 
    117 H117       30.5104   31.9768    0.8005 H         1 UNK         0.0813 
    118 H118       32.0693   31.7572    0.0220 H         1 UNK         0.0813 
    119 H119       30.9843   30.3874    0.2146 H         1 UNK         0.0813 
    120 H120       34.3163   31.5791    1.3080 H         1 UNK         0.3038 
    121 H121       36.2659   30.7057    0.8406 H         1 UNK         0.0769 
    122 H122       35.1162   29.3353   -0.8429 H         1 UNK         0.0811 
    123 H123       36.4439   28.4246   -0.1439 H         1 UNK         0.0811 
    124 H124       34.7920   28.0659    0.3317 H         1 UNK         0.0811 
    125 H125       34.7776   28.0046    2.6601 H         1 UNK         0.3204 
    126 H126       37.2734   27.5403    4.1672 H         1 UNK         0.0748 
    127 H127       36.0146   25.5940    3.3068 H         1 UNK         0.0771 
    128 H128       36.0329   25.5681    5.0620 H         1 UNK         0.0771 
    129 H129       34.5827   26.0752    4.2112 H         1 UNK         0.0771 
    130 H130       34.3624   29.3643    4.6178 H         1 UNK         0.2980 
    131 H131       35.2333   30.3194    7.1431 H         1 UNK         0.0545 
    132 H132       33.0895   31.8674    7.9762 H         1 UNK         0.3459 
    133 H133       32.6755   32.9387    6.6634 H         1 UNK         0.3459 
    134 H134       34.1014   28.3743    8.0941 H         1 UNK         0.0616 
    135 H135       33.2076   29.7983    8.4972 H         1 UNK         0.0616 
    136 H136       32.3735   26.2218    7.8071 H         1 UNK         0.0634 
    137 H137       33.4990   26.6148    6.5301 H         1 UNK         0.0634 
@<TRIPOS>BOND
     1    1    2 1    
     2    1   72 1    
     3    1   73 1    
     4    1   74 1    
     5    2    3 2    
     6    2    4 am   BACKBONE|DICT|INTERRES
     7    4    5 1    
     8    4   75 1    
     9    5    6 1    
    10    5   35 1    
    11    5   76 1    
    12    6    7 1    
    13    6   77 1    
    14    6   78 1    
    15    7    8 1    
    16    8    9 1    
    17    8   79 1    
    18    8   80 1    
    19    9   10 ar   
    20    9   14 ar   
    21   10   11 ar   
    22   10   81 1    
    23   11   12 ar   
    24   11   71 1    
    25   12   13 ar   
    26   12   82 1    
    27   13   14 ar   
    28   13   15 1    
    29   14   83 1    
    30   15   16 1    
    31   15   84 1    
    32   15   85 1    
    33   16   17 1    
    34   17   18 1    
    35   17   86 1    
    36   17   87 1    
    37   18   19 1    
    38   18   37 1    
    39   18   88 1    
    40   19   20 am   BACKBONE|DICT|INTERRES
    41   19   89 1    
    42   20   21 2    
    43   20   22 1    
    44   22   23 1    
    45   22   24 1    
    46   22   90 1    
    47   23   91 1    
    48   23   92 1    
    49   23   93 1    
    50   24   25 am   BACKBONE|DICT|INTERRES
    51   24   94 1    
    52   25   26 2    
    53   25   27 1    
    54   27   28 1    
    55   27   29 1    
    56   27   95 1    
    57   28   96 1    
    58   28   97 1    
    59   28   98 1    
    60   29   30 am   BACKBONE|DICT|INTERRES
    61   29   99 1    
    62   30   31 2    
    63   30   32 1    
    64   32   33 1    
    65   32   34 1    
    66   32  100 1    
    67   33  101 1    
    68   33  102 1    
    69   33  103 1    
    70   34   35 am   BACKBONE|DICT|INTERRES
    71   34  104 1    
    72   35   36 2    
    73   37   38 2    
    74   37   39 am   BACKBONE|DICT|INTERRES
    75   39   40 1    
    76   39  105 1    
    77   40   41 1    
    78   40   42 1    
    79   40  106 1    
    80   41  107 1    
    81   41  108 1    
    82   41  109 1    
    83   42   43 2    
    84   42   44 am   BACKBONE|DICT|INTERRES
    85   44   45 1    
    86   44  110 1    
    87   45   46 1    
    88   45   47 1    
    89   45  111 1    
    90   46  112 1    
    91   46  113 1    
    92   46  114 1    
    93   47   48 2    
    94   47   49 am   BACKBONE|DICT|INTERRES
    95   49   50 1    
    96   49  115 1    
    97   50   51 1    
    98   50   52 1    
    99   50  116 1    
   100   51  117 1    
   101   51  118 1    
   102   51  119 1    
   103   52   53 2    
   104   52   54 am   BACKBONE|DICT|INTERRES
   105   54   55 1    
   106   54  120 1    
   107   55   56 1    
   108   55   57 1    
   109   55  121 1    
   110   56  122 1    
   111   56  123 1    
   112   56  124 1    
   113   57   58 2    
   114   57   59 am   BACKBONE|DICT|INTERRES
   115   59   60 1    
   116   59  125 1    
   117   60   61 1    
   118   60   62 1    
   119   60  126 1    
   120   61  127 1    
   121   61  128 1    
   122   61  129 1    
   123   62   63 2    
   124   62   64 am   BACKBONE|DICT|INTERRES
   125   64   65 1    
   126   64  130 1    
   127   65   66 1    
   128   65   69 1    
   129   65  131 1    
   130   66   67 am   BACKBONE|DICT|INTERRES
   131   66   68 2    
   132   67  132 1    
   133   67  133 1    
   134   69   70 1    
   135   69  134 1    
   136   69  135 1    
   137   70   71 1    
   138   71  136 1    
   139   71  137 1    
@<TRIPOS>SUBSTRUCTURE
     1 UNK         1 GROUP             0       ****    0 ROOT    
