@<TRIPOS>MOLECULE
3R136
137   139    1
SMALL
USER_CHARGES


@<TRIPOS>ATOM
      1 CA         25.5349   19.7787    2.0724 C.3       0 UNK        -0.1979 
      2 C          26.0692   20.8090    1.0885 C.2       0 UNK         0.4864 
      3 O          25.3647   21.1813    0.1498 O.2       0 UNK        -0.5359 
      4 N          27.3102   21.2689    1.2945 N.am      1 UNK        -0.4318 
      5 CA         27.9788   22.2834    0.4705 C.3       1 UNK         0.0824 
      6 C6         29.5221   22.1814    0.5588 C.3       12 UNK        -0.0944 
      7 S7         30.1766   22.1632    2.2645 S.3       12 UNK        -0.2672 
      8 C8         31.9645   22.0399    1.9461 C.3       12 UNK         0.0333 
      9 C9         32.6220   23.4115    1.9105 C.ar      12 UNK        -0.0807 
     10 C10        33.2397   23.9178    3.0587 C.ar      12 UNK        -0.0894 
     11 C11        33.8535   25.1729    3.0387 C.ar      12 UNK        -0.0804 
     12 C12        33.8393   25.9283    1.8625 C.ar      12 UNK        -0.0824 
     13 C13        33.2222   25.4347    0.7094 C.ar      12 UNK        -0.0762 
     14 C14        32.6232   24.1713    0.7359 C.ar      12 UNK        -0.0782 
     15 C15        33.2127   26.2686   -0.5631 C.3       12 UNK         0.0230 
     16 S16        31.9856   27.6098   -0.4772 S.3       12 UNK        -0.2608 
     17 C17        30.4127   26.6929   -0.6033 C.3       12 UNK        -0.0989 
     18 CA         29.2896   27.5527   -1.2384 C.3       5 UNK         0.0716 
     19 N          28.2392   26.7058   -1.7956 N.am      5 UNK        -0.4135 
     20 C          27.5184   26.9731   -2.8910 C.2       4 UNK         0.5031 
     21 O          27.7948   27.8538   -3.7065 O.2       4 UNK        -0.5229 
     22 CA         26.2247   26.1592   -3.0567 C.3       4 UNK         0.0329 
     23 CB         26.5094   24.6815   -3.3758 C.3       4 UNK        -0.2001 
     24 N          25.4252   26.2753   -1.8342 N.am      4 UNK        -0.4303 
     25 C          24.6401   27.3270   -1.5562 C.2       3 UNK         0.5044 
     26 O          24.3194   28.1729   -2.3924 O.2       3 UNK        -0.5152 
     27 CA         24.1738   27.5238   -0.1024 C.3       3 UNK         0.0319 
     28 CB         22.6844   27.1697    0.0863 C.3       3 UNK        -0.2001 
     29 N          25.0570   26.8896    0.8869 N.am      3 UNK        -0.4354 
     30 C          25.0940   25.6146    1.2929 C.2       2 UNK         0.4964 
     31 O          24.2985   24.7436    0.9383 O.2       2 UNK        -0.5047 
     32 CA         26.2406   25.2466    2.2515 C.3       2 UNK         0.0288 
     33 CB         25.7405   25.1916    3.7039 C.3       2 UNK        -0.2113 
     34 N          26.8433   23.9599    1.8976 N.am      2 UNK        -0.4145 
     35 C          27.4866   23.7202    0.7457 C.2       1 UNK         0.5006 
     36 O          27.6939   24.5917   -0.1001 O.2       1 UNK        -0.5103 
     37 C          28.6506   28.5084   -0.2077 C.2       5 UNK         0.5055 
     38 O          27.5637   28.2326    0.3095 O.2       5 UNK        -0.5220 
     39 N          29.3554   29.6009    0.1111 N.am      6 UNK        -0.4450 
     40 CA         28.9218   30.6428    1.0514 C.3       6 UNK         0.0367 
     41 CB         29.7540   31.9131    0.8054 C.3       6 UNK        -0.1929 
     42 C          28.9639   30.2322    2.5400 C.2       6 UNK         0.5070 
     43 O          28.6648   31.0677    3.3948 O.2       6 UNK        -0.5237 
     44 N          29.3364   28.9763    2.8316 N.am      7 UNK        -0.4739 
     45 CA         29.4566   28.3693    4.1613 C.3       7 UNK         0.0276 
     46 CB         28.0667   28.2145    4.8199 C.3       7 UNK        -0.1927 
     47 C          30.4906   29.1236    5.0143 C.2       7 UNK         0.5013 
     48 O          31.6004   29.3428    4.5296 O.2       7 UNK        -0.5193 
     49 N          30.1280   29.5369    6.2370 N.am      8 UNK        -0.4253 
     50 CA         30.9976   30.2289    7.1983 C.3       8 UNK         0.0242 
     51 CB         30.1886   30.5728    8.4589 C.3       8 UNK        -0.2000 
     52 C          31.7060   31.4859    6.6567 C.2       8 UNK         0.4948 
     53 O          32.8199   31.7764    7.0928 O.2       8 UNK        -0.5275 
     54 N          31.0836   32.1790    5.6917 N.am      9 UNK        -0.4246 
     55 CA         31.6757   33.3157    4.9817 C.3       9 UNK         0.0261 
     56 CB         30.5790   34.0538    4.1991 C.3       9 UNK        -0.1959 
     57 C          32.8426   32.9252    4.0524 C.2       9 UNK         0.5033 
     58 O          33.6935   33.7748    3.7842 O.2       9 UNK        -0.5390 
     59 N          32.8757   31.6680    3.5879 N.am      10 UNK        -0.4215 
     60 CA         33.9855   31.0920    2.8291 C.3       10 UNK         0.0240 
     61 CB         33.4466   30.1272    1.7581 C.3       10 UNK        -0.1982 
     62 C          34.9675   30.3672    3.7608 C.2       10 UNK         0.4970 
     63 O          36.1771   30.5228    3.5884 O.2       10 UNK        -0.4916 
     64 N          34.4419   29.5834    4.7137 N.am      11 UNK        -0.4279 
     65 CA         35.2404   28.7784    5.6531 C.3       11 UNK         0.1003 
     66 C          36.0363   29.6071    6.6996 C.2       11 UNK         0.5709 
     67 N          35.5690   30.7794    7.1114 N.am      11 UNK        -0.7358 
     68 O          37.1005   29.1790    7.1403 O.2       11 UNK        -0.4999 
     69 C69        34.4176   27.6623    6.3563 C.3       12 UNK        -0.0954 
     70 S70        33.3322   26.6987    5.2518 S.3       12 UNK        -0.2268 
     71 C71        34.5207   25.7238    4.2878 C.3       12 UNK         0.0203 
     72 H72        24.6349   20.1553    2.5579 H         1 UNK         0.0888 
     73 H73        25.2801   18.8575    1.5492 H         1 UNK         0.0888 
     74 H74        26.2629   19.5380    2.8470 H         1 UNK         0.0888 
     75 H75        27.8548   20.9229    2.0730 H         1 UNK         0.3017 
     76 H76        27.7125   22.0840   -0.5701 H         1 UNK         0.0873 
     77 H77        29.9918   22.9908   -0.0020 H         1 UNK         0.0745 
     78 H78        29.8440   21.2602    0.0704 H         1 UNK         0.0745 
     79 H79        32.1486   21.5061    1.0125 H         1 UNK         0.0705 
     80 H80        32.4149   21.4319    2.7323 H         1 UNK         0.0705 
     81 H81        33.2391   23.3371    3.9712 H         1 UNK         0.1334 
     82 H82        34.2990   26.9073    1.8472 H         1 UNK         0.1417 
     83 H83        32.1550   23.7820   -0.1570 H         1 UNK         0.1562 
     84 H84        33.0211   25.6474   -1.4394 H         1 UNK         0.0748 
     85 H85        34.2003   26.7073   -0.7132 H         1 UNK         0.0748 
     86 H86        30.1283   26.3059    0.3780 H         1 UNK         0.0940 
     87 H87        30.5910   25.8139   -1.2250 H         1 UNK         0.0940 
     88 H88        29.7157   28.1539   -2.0447 H         1 UNK         0.0703 
     89 H89        27.9252   25.9594   -1.1760 H         1 UNK         0.3081 
     90 H90        25.6653   26.5772   -3.8966 H         1 UNK         0.0719 
     91 H91        27.0881   24.5899   -4.2958 H         1 UNK         0.0809 
     92 H92        27.0745   24.1850   -2.5880 H         1 UNK         0.0809 
     93 H93        25.5831   24.1252   -3.5204 H         1 UNK         0.0809 
     94 H94        25.6371   25.6296   -1.0860 H         1 UNK         0.2990 
     95 H95        24.2704   28.5927    0.0946 H         1 UNK         0.0690 
     96 H96        22.3698   27.3048    1.1210 H         1 UNK         0.0788 
     97 H97        22.4663   26.1417   -0.2037 H         1 UNK         0.0788 
     98 H98        22.0561   27.8131   -0.5310 H         1 UNK         0.0788 
     99 H99        25.8411   27.4791    1.1521 H         1 UNK         0.2993 
    100 H100       27.0208   26.0083    2.1794 H         1 UNK         0.0949 
    101 H101       25.2945   26.1422    3.9998 H         1 UNK         0.0767 
    102 H102       24.9814   24.4200    3.8396 H         1 UNK         0.0767 
    103 H103       26.5567   24.9875    4.3975 H         1 UNK         0.0767 
    104 H104       26.6874   23.1890    2.5289 H         1 UNK         0.3013 
    105 H105       30.2649   29.7243   -0.3126 H         1 UNK         0.3121 
    106 H106       27.8800   30.8783    0.8238 H         1 UNK         0.0774 
    107 H107       29.3325   32.7612    1.3452 H         1 UNK         0.0815 
    108 H108       30.7847   31.7945    1.1390 H         1 UNK         0.0815 
    109 H109       29.7678   32.1866   -0.2497 H         1 UNK         0.0815 
    110 H110       29.6036   28.3872    2.0572 H         1 UNK         0.2987 
    111 H111       29.8674   27.3697    4.0097 H         1 UNK         0.0949 
    112 H112       28.1281   27.6446    5.7479 H         1 UNK         0.0806 
    113 H113       27.3855   27.6750    4.1628 H         1 UNK         0.0806 
    114 H114       27.6051   29.1766    5.0455 H         1 UNK         0.0806 
    115 H115       29.1866   29.3388    6.5431 H         1 UNK         0.3010 
    116 H116       31.7808   29.5227    7.4802 H         1 UNK         0.0829 
    117 H117       29.7814   29.6768    8.9279 H         1 UNK         0.0813 
    118 H118       30.8155   31.0673    9.2025 H         1 UNK         0.0813 
    119 H119       29.3582   31.2437    8.2349 H         1 UNK         0.0813 
    120 H120       30.1812   31.8559    5.3674 H         1 UNK         0.3038 
    121 H121       32.0768   34.0039    5.7289 H         1 UNK         0.0769 
    122 H122       30.9885   34.9118    3.6641 H         1 UNK         0.0811 
    123 H123       29.8006   34.4284    4.8639 H         1 UNK         0.0811 
    124 H124       30.1064   33.4047    3.4633 H         1 UNK         0.0811 
    125 H125       32.1718   31.0066    3.9074 H         1 UNK         0.3204 
    126 H126       34.5347   31.8839    2.3154 H         1 UNK         0.0748 
    127 H127       34.2638   29.6579    1.2087 H         1 UNK         0.0771 
    128 H128       32.8459   29.3254    2.1891 H         1 UNK         0.0771 
    129 H129       32.8315   30.6495    1.0268 H         1 UNK         0.0771 
    130 H130       33.4334   29.4602    4.7565 H         1 UNK         0.2980 
    131 H131       35.9982   28.2766    5.0498 H         1 UNK         0.0545 
    132 H132       36.1002   31.3068    7.7850 H         1 UNK         0.3459 
    133 H133       34.6528   31.1115    6.8284 H         1 UNK         0.3459 
    134 H134       35.0825   26.9684    6.8739 H         1 UNK         0.0616 
    135 H135       33.7781   28.0990    7.1252 H         1 UNK         0.0616 
    136 H136       35.3723   26.3411    4.0020 H         1 UNK         0.0634 
    137 H137       34.9142   24.9152    4.9055 H         1 UNK         0.0634 
@<TRIPOS>BOND
     1    1    2 1    
     2    1   72 1    
     3    1   73 1    
     4    1   74 1    
     5    2    3 2    
     6    2    4 am   BACKBONE|DICT|INTERRES
     7    4    5 1    
     8    4   75 1    
     9    5    6 1    
    10    5   35 1    
    11    5   76 1    
    12    6    7 1    
    13    6   77 1    
    14    6   78 1    
    15    7    8 1    
    16    8    9 1    
    17    8   79 1    
    18    8   80 1    
    19    9   10 ar   
    20    9   14 ar   
    21   10   11 ar   
    22   10   81 1    
    23   11   12 ar   
    24   11   71 1    
    25   12   13 ar   
    26   12   82 1    
    27   13   14 ar   
    28   13   15 1    
    29   14   83 1    
    30   15   16 1    
    31   15   84 1    
    32   15   85 1    
    33   16   17 1    
    34   17   18 1    
    35   17   86 1    
    36   17   87 1    
    37   18   19 1    
    38   18   37 1    
    39   18   88 1    
    40   19   20 am   BACKBONE|DICT|INTERRES
    41   19   89 1    
    42   20   21 2    
    43   20   22 1    
    44   22   23 1    
    45   22   24 1    
    46   22   90 1    
    47   23   91 1    
    48   23   92 1    
    49   23   93 1    
    50   24   25 am   BACKBONE|DICT|INTERRES
    51   24   94 1    
    52   25   26 2    
    53   25   27 1    
    54   27   28 1    
    55   27   29 1    
    56   27   95 1    
    57   28   96 1    
    58   28   97 1    
    59   28   98 1    
    60   29   30 am   BACKBONE|DICT|INTERRES
    61   29   99 1    
    62   30   31 2    
    63   30   32 1    
    64   32   33 1    
    65   32   34 1    
    66   32  100 1    
    67   33  101 1    
    68   33  102 1    
    69   33  103 1    
    70   34   35 am   BACKBONE|DICT|INTERRES
    71   34  104 1    
    72   35   36 2    
    73   37   38 2    
    74   37   39 am   BACKBONE|DICT|INTERRES
    75   39   40 1    
    76   39  105 1    
    77   40   41 1    
    78   40   42 1    
    79   40  106 1    
    80   41  107 1    
    81   41  108 1    
    82   41  109 1    
    83   42   43 2    
    84   42   44 am   BACKBONE|DICT|INTERRES
    85   44   45 1    
    86   44  110 1    
    87   45   46 1    
    88   45   47 1    
    89   45  111 1    
    90   46  112 1    
    91   46  113 1    
    92   46  114 1    
    93   47   48 2    
    94   47   49 am   BACKBONE|DICT|INTERRES
    95   49   50 1    
    96   49  115 1    
    97   50   51 1    
    98   50   52 1    
    99   50  116 1    
   100   51  117 1    
   101   51  118 1    
   102   51  119 1    
   103   52   53 2    
   104   52   54 am   BACKBONE|DICT|INTERRES
   105   54   55 1    
   106   54  120 1    
   107   55   56 1    
   108   55   57 1    
   109   55  121 1    
   110   56  122 1    
   111   56  123 1    
   112   56  124 1    
   113   57   58 2    
   114   57   59 am   BACKBONE|DICT|INTERRES
   115   59   60 1    
   116   59  125 1    
   117   60   61 1    
   118   60   62 1    
   119   60  126 1    
   120   61  127 1    
   121   61  128 1    
   122   61  129 1    
   123   62   63 2    
   124   62   64 am   BACKBONE|DICT|INTERRES
   125   64   65 1    
   126   64  130 1    
   127   65   66 1    
   128   65   69 1    
   129   65  131 1    
   130   66   67 am   BACKBONE|DICT|INTERRES
   131   66   68 2    
   132   67  132 1    
   133   67  133 1    
   134   69   70 1    
   135   69  134 1    
   136   69  135 1    
   137   70   71 1    
   138   71  136 1    
   139   71  137 1    
@<TRIPOS>SUBSTRUCTURE
     1 UNK         1 GROUP             0       ****    0 ROOT    
