@<TRIPOS>MOLECULE
3R136
137   139    1
SMALL
USER_CHARGES


@<TRIPOS>ATOM
      1 CA         24.8217   22.4438   -0.3489 C.3       0 UNK        -0.1979 
      2 C          26.2920   22.0845   -0.5046 C.2       0 UNK         0.4864 
      3 O          26.6783   21.5148   -1.5264 O.2       0 UNK        -0.5359 
      4 N          27.1134   22.4048    0.5034 N.am      1 UNK        -0.4318 
      5 CA         28.5647   22.2184    0.4855 C.3       1 UNK         0.0824 
      6 C6         29.1399   22.2057    1.9213 C.3       12 UNK        -0.0944 
      7 S7         30.8546   21.5885    1.9836 S.3       12 UNK        -0.2672 
      8 C8         31.0251   21.2209    3.7567 C.3       12 UNK         0.0333 
      9 C9         30.9871   22.4849    4.6038 C.ar      12 UNK        -0.0807 
     10 C10        32.1583   23.2109    4.8369 C.ar      12 UNK        -0.0894 
     11 C11        32.1359   24.3536    5.6420 C.ar      12 UNK        -0.0804 
     12 C12        30.9276   24.7753    6.2077 C.ar      12 UNK        -0.0824 
     13 C13        29.7461   24.0671    5.9656 C.ar      12 UNK        -0.0762 
     14 C14        29.7849   22.9184    5.1704 C.ar      12 UNK        -0.0782 
     15 C15        28.4275   24.5168    6.5778 C.3       12 UNK         0.0230 
     16 S16        27.4326   25.4908    5.4020 S.3       12 UNK        -0.2608 
     17 C17        28.2192   27.1344    5.5072 C.3       12 UNK        -0.0989 
     18 CA         29.0910   27.4656    4.2681 C.3       5 UNK         0.0716 
     19 N          28.2858   27.4459    3.0373 N.am      5 UNK        -0.4135 
     20 C          28.7268   27.6096    1.7827 C.2       4 UNK         0.5031 
     21 O          29.9062   27.8145    1.4828 O.2       4 UNK        -0.5229 
     22 CA         27.6603   27.5540    0.6760 C.3       4 UNK         0.0329 
     23 CB         26.6972   28.7566    0.7814 C.3       4 UNK        -0.2001 
     24 N          28.3538   27.5289   -0.6104 N.am      4 UNK        -0.4303 
     25 C          27.8234   27.4376   -1.8357 C.2       3 UNK         0.5044 
     26 O          26.6159   27.3925   -2.0733 O.2       3 UNK        -0.5152 
     27 CA         28.8262   27.3477   -2.9993 C.3       3 UNK         0.0319 
     28 CB         29.6768   28.6237   -3.1217 C.3       3 UNK        -0.2001 
     29 N          29.7012   26.1864   -2.8443 N.am      3 UNK        -0.4354 
     30 C          29.3098   24.9172   -3.0203 C.2       2 UNK         0.4964 
     31 O          28.2152   24.5962   -3.4867 O.2       2 UNK        -0.5047 
     32 CA         30.2905   23.8055   -2.5963 C.3       2 UNK         0.0288 
     33 CB         31.6729   24.3169   -2.1314 C.3       2 UNK        -0.2113 
     34 N          29.6953   22.9385   -1.5718 N.am      2 UNK        -0.4145 
     35 C          29.2010   23.3204   -0.3829 C.2       1 UNK         0.5006 
     36 O          29.2090   24.4797    0.0369 O.2       1 UNK        -0.5103 
     37 C          29.8477   28.7973    4.4891 C.2       5 UNK         0.5055 
     38 O          29.5811   29.7864    3.8035 O.2       5 UNK        -0.5220 
     39 N          30.7682   28.7935    5.4663 N.am      6 UNK        -0.4450 
     40 CA         31.7204   29.8561    5.8227 C.3       6 UNK         0.0367 
     41 CB         32.3230   29.5614    7.2084 C.3       6 UNK        -0.1929 
     42 C          31.1721   31.2915    5.7849 C.2       6 UNK         0.5070 
     43 O          31.7231   32.1359    5.0788 O.2       6 UNK        -0.5237 
     44 N          30.0824   31.5290    6.5243 N.am      7 UNK        -0.4739 
     45 CA         29.4358   32.8386    6.6449 C.3       7 UNK         0.0276 
     46 CB         28.5047   32.8191    7.8687 C.3       7 UNK        -0.1927 
     47 C          28.6608   33.2791    5.3890 C.2       7 UNK         0.5013 
     48 O          28.3435   34.4639    5.2741 O.2       7 UNK        -0.5193 
     49 N          28.3468   32.3340    4.4942 N.am      8 UNK        -0.4253 
     50 CA         27.5638   32.5625    3.2834 C.3       8 UNK         0.0242 
     51 CB         26.5532   31.4178    3.1134 C.3       8 UNK        -0.2000 
     52 C          28.4601   32.7035    2.0457 C.2       8 UNK         0.4948 
     53 O          28.2811   33.6613    1.2919 O.2       8 UNK        -0.5275 
     54 N          29.3969   31.7647    1.8462 N.am      9 UNK        -0.4246 
     55 CA         30.2663   31.7157    0.6669 C.3       9 UNK         0.0261 
     56 CB         29.5041   31.1419   -0.5442 C.3       9 UNK        -0.1959 
     57 C          31.5896   30.9797    0.9349 C.2       9 UNK         0.5033 
     58 O          32.0752   30.2634    0.0562 O.2       9 UNK        -0.5390 
     59 N          32.1739   31.1872    2.1254 N.am      10 UNK        -0.4215 
     60 CA         33.5427   30.7980    2.5037 C.3       10 UNK         0.0240 
     61 CB         34.5649   31.6540    1.7237 C.3       10 UNK        -0.1982 
     62 C          33.8579   29.2882    2.4087 C.2       10 UNK         0.4970 
     63 O          35.0270   28.9324    2.2498 O.2       10 UNK        -0.4916 
     64 N          32.8287   28.4346    2.5087 N.am      11 UNK        -0.4279 
     65 CA         32.9030   26.9702    2.3392 C.3       11 UNK         0.1003 
     66 C          33.1765   26.5327    0.8667 C.2       11 UNK         0.5709 
     67 N          32.9665   27.3858   -0.1321 N.am      11 UNK        -0.7358 
     68 O          33.5827   25.4001    0.6180 O.2       11 UNK        -0.4999 
     69 C69        33.8406   26.2574    3.3619 C.3       12 UNK        -0.0954 
     70 S70        33.4989   26.7151    5.0942 S.3       12 UNK        -0.2268 
     71 C71        33.4251   25.1061    5.9369 C.3       12 UNK         0.0203 
     72 H72        24.6172   22.9214    0.6092 H         1 UNK         0.0888 
     73 H73        24.5182   23.1283   -1.1406 H         1 UNK         0.0888 
     74 H74        24.2066   21.5470   -0.4187 H         1 UNK         0.0888 
     75 H75        26.7458   22.8953    1.3059 H         1 UNK         0.3017 
     76 H76        28.7733   21.2449    0.0352 H         1 UNK         0.0873 
     77 H77        29.0959   23.1976    2.3764 H         1 UNK         0.0745 
     78 H78        28.5307   21.5544    2.5501 H         1 UNK         0.0745 
     79 H79        31.9693   20.6984    3.9177 H         1 UNK         0.0705 
     80 H80        30.2403   20.5281    4.0646 H         1 UNK         0.0705 
     81 H81        33.0898   22.8760    4.4011 H         1 UNK         0.1334 
     82 H82        30.9115   25.6499    6.8426 H         1 UNK         0.1417 
     83 H83        28.8748   22.3620    4.9918 H         1 UNK         0.1562 
     84 H84        28.5955   25.0860    7.4933 H         1 UNK         0.0748 
     85 H85        27.8504   23.6400    6.8757 H         1 UNK         0.0748 
     86 H86        28.7989   27.1826    6.4302 H         1 UNK         0.0940 
     87 H87        27.4277   27.8782    5.6212 H         1 UNK         0.0940 
     88 H88        29.8497   26.6880    4.1573 H         1 UNK         0.0703 
     89 H89        27.3005   27.2817    3.1773 H         1 UNK         0.3081 
     90 H90        27.1037   26.6206    0.7778 H         1 UNK         0.0719 
     91 H91        27.2279   29.7059    0.7179 H         1 UNK         0.0809 
     92 H92        25.9387   28.7482    0.0001 H         1 UNK         0.0809 
     93 H93        26.1574   28.7428    1.7281 H         1 UNK         0.0809 
     94 H94        29.3615   27.5263   -0.5007 H         1 UNK         0.2990 
     95 H95        28.2571   27.2348   -3.9248 H         1 UNK         0.0690 
     96 H96        30.2948   28.5994   -4.0193 H         1 UNK         0.0788 
     97 H97        30.3403   28.7594   -2.2666 H         1 UNK         0.0788 
     98 H98        29.0430   29.5089   -3.1907 H         1 UNK         0.0788 
     99 H99        30.6122   26.3492   -2.4417 H         1 UNK         0.2993 
    100 H100       30.4461   23.1852   -3.4805 H         1 UNK         0.0949 
    101 H101       31.5981   24.9412   -1.2409 H         1 UNK         0.0767 
    102 H102       32.3347   23.4855   -1.8879 H         1 UNK         0.0767 
    103 H103       32.1671   24.8975   -2.9113 H         1 UNK         0.0767 
    104 H104       29.5741   21.9723   -1.8423 H         1 UNK         0.3013 
    105 H105       30.9126   27.9251    5.9587 H         1 UNK         0.3121 
    106 H106       32.5308   29.7987    5.0982 H         1 UNK         0.0774 
    107 H107       33.0349   30.3360    7.4977 H         1 UNK         0.0815 
    108 H108       31.5581   29.5171    7.9844 H         1 UNK         0.0815 
    109 H109       32.8629   28.6157    7.2225 H         1 UNK         0.0815 
    110 H110       29.6828   30.7690    7.0559 H         1 UNK         0.2987 
    111 H111       30.2126   33.5869    6.8191 H         1 UNK         0.0949 
    112 H112       28.0306   33.7907    8.0151 H         1 UNK         0.0806 
    113 H113       27.7082   32.0821    7.7583 H         1 UNK         0.0806 
    114 H114       29.0531   32.5891    8.7823 H         1 UNK         0.0806 
    115 H115       28.7201   31.3996    4.6210 H         1 UNK         0.3010 
    116 H116       26.9920   33.4885    3.3783 H         1 UNK         0.0829 
    117 H117       25.8181   31.4213    3.9183 H         1 UNK         0.0813 
    118 H118       26.0058   31.5107    2.1744 H         1 UNK         0.0813 
    119 H119       27.0438   30.4452    3.1199 H         1 UNK         0.0813 
    120 H120       29.4850   30.9975    2.5146 H         1 UNK         0.3038 
    121 H121       30.5572   32.7386    0.4185 H         1 UNK         0.0769 
    122 H122       30.1043   31.2143   -1.4518 H         1 UNK         0.0811 
    123 H123       28.5733   31.6762   -0.7332 H         1 UNK         0.0811 
    124 H124       29.2671   30.0909   -0.3930 H         1 UNK         0.0811 
    125 H125       31.6860   31.7521    2.8112 H         1 UNK         0.3204 
    126 H126       33.6557   31.0598    3.5551 H         1 UNK         0.0748 
    127 H127       35.5781   31.4978    2.0961 H         1 UNK         0.0771 
    128 H128       34.5674   31.4093    0.6608 H         1 UNK         0.0771 
    129 H129       34.3493   32.7180    1.8227 H         1 UNK         0.0771 
    130 H130       31.8917   28.8116    2.5467 H         1 UNK         0.2980 
    131 H131       31.8989   26.6039    2.5489 H         1 UNK         0.0545 
    132 H132       33.1745   27.0992   -1.0733 H         1 UNK         0.3459 
    133 H133       32.6304   28.3267    0.0498 H         1 UNK         0.3459 
    134 H134       34.8873   26.4799    3.1516 H         1 UNK         0.0616 
    135 H135       33.7417   25.1756    3.2620 H         1 UNK         0.0616 
    136 H136       33.4994   25.2743    7.0122 H         1 UNK         0.0634 
    137 H137       34.2993   24.5140    5.6615 H         1 UNK         0.0634 
@<TRIPOS>BOND
     1    1    2 1    
     2    1   72 1    
     3    1   73 1    
     4    1   74 1    
     5    2    3 2    
     6    2    4 am   BACKBONE|DICT|INTERRES
     7    4    5 1    
     8    4   75 1    
     9    5    6 1    
    10    5   35 1    
    11    5   76 1    
    12    6    7 1    
    13    6   77 1    
    14    6   78 1    
    15    7    8 1    
    16    8    9 1    
    17    8   79 1    
    18    8   80 1    
    19    9   10 ar   
    20    9   14 ar   
    21   10   11 ar   
    22   10   81 1    
    23   11   12 ar   
    24   11   71 1    
    25   12   13 ar   
    26   12   82 1    
    27   13   14 ar   
    28   13   15 1    
    29   14   83 1    
    30   15   16 1    
    31   15   84 1    
    32   15   85 1    
    33   16   17 1    
    34   17   18 1    
    35   17   86 1    
    36   17   87 1    
    37   18   19 1    
    38   18   37 1    
    39   18   88 1    
    40   19   20 am   BACKBONE|DICT|INTERRES
    41   19   89 1    
    42   20   21 2    
    43   20   22 1    
    44   22   23 1    
    45   22   24 1    
    46   22   90 1    
    47   23   91 1    
    48   23   92 1    
    49   23   93 1    
    50   24   25 am   BACKBONE|DICT|INTERRES
    51   24   94 1    
    52   25   26 2    
    53   25   27 1    
    54   27   28 1    
    55   27   29 1    
    56   27   95 1    
    57   28   96 1    
    58   28   97 1    
    59   28   98 1    
    60   29   30 am   BACKBONE|DICT|INTERRES
    61   29   99 1    
    62   30   31 2    
    63   30   32 1    
    64   32   33 1    
    65   32   34 1    
    66   32  100 1    
    67   33  101 1    
    68   33  102 1    
    69   33  103 1    
    70   34   35 am   BACKBONE|DICT|INTERRES
    71   34  104 1    
    72   35   36 2    
    73   37   38 2    
    74   37   39 am   BACKBONE|DICT|INTERRES
    75   39   40 1    
    76   39  105 1    
    77   40   41 1    
    78   40   42 1    
    79   40  106 1    
    80   41  107 1    
    81   41  108 1    
    82   41  109 1    
    83   42   43 2    
    84   42   44 am   BACKBONE|DICT|INTERRES
    85   44   45 1    
    86   44  110 1    
    87   45   46 1    
    88   45   47 1    
    89   45  111 1    
    90   46  112 1    
    91   46  113 1    
    92   46  114 1    
    93   47   48 2    
    94   47   49 am   BACKBONE|DICT|INTERRES
    95   49   50 1    
    96   49  115 1    
    97   50   51 1    
    98   50   52 1    
    99   50  116 1    
   100   51  117 1    
   101   51  118 1    
   102   51  119 1    
   103   52   53 2    
   104   52   54 am   BACKBONE|DICT|INTERRES
   105   54   55 1    
   106   54  120 1    
   107   55   56 1    
   108   55   57 1    
   109   55  121 1    
   110   56  122 1    
   111   56  123 1    
   112   56  124 1    
   113   57   58 2    
   114   57   59 am   BACKBONE|DICT|INTERRES
   115   59   60 1    
   116   59  125 1    
   117   60   61 1    
   118   60   62 1    
   119   60  126 1    
   120   61  127 1    
   121   61  128 1    
   122   61  129 1    
   123   62   63 2    
   124   62   64 am   BACKBONE|DICT|INTERRES
   125   64   65 1    
   126   64  130 1    
   127   65   66 1    
   128   65   69 1    
   129   65  131 1    
   130   66   67 am   BACKBONE|DICT|INTERRES
   131   66   68 2    
   132   67  132 1    
   133   67  133 1    
   134   69   70 1    
   135   69  134 1    
   136   69  135 1    
   137   70   71 1    
   138   71  136 1    
   139   71  137 1    
@<TRIPOS>SUBSTRUCTURE
     1 UNK         1 GROUP             0       ****    0 ROOT    
