@<TRIPOS>MOLECULE
3R136
137   139    1
SMALL
USER_CHARGES


@<TRIPOS>ATOM
      1 CA         29.2144   26.1110    2.9941 C.3       0 UNK        -0.1979 
      2 C          28.7536   24.6800    2.7746 C.2       0 UNK         0.4864 
      3 O          27.5952   24.3622    3.0450 O.2       0 UNK        -0.5359 
      4 N          29.6555   23.8149    2.2909 N.am      1 UNK        -0.4318 
      5 CA         29.4910   22.3553    2.2173 C.3       1 UNK         0.0824 
      6 C6         30.7701   21.6441    1.7115 C.3       12 UNK        -0.0944 
      7 S7         32.2520   22.0599    2.6931 S.3       12 UNK        -0.2672 
      8 C8         33.3294   22.8303    1.4432 C.3       12 UNK         0.0333 
      9 C9         32.8797   24.2405    1.0887 C.ar      12 UNK        -0.0807 
     10 C10        33.2609   25.3175    1.8946 C.ar      12 UNK        -0.0894 
     11 C11        32.8812   26.6219    1.5647 C.ar      12 UNK        -0.0804 
     12 C12        32.1199   26.8446    0.4136 C.ar      12 UNK        -0.0824 
     13 C13        31.7279   25.7756   -0.3987 C.ar      12 UNK        -0.0762 
     14 C14        32.1136   24.4759   -0.0575 C.ar      12 UNK        -0.0782 
     15 C15        30.9104   26.0211   -1.6597 C.3       12 UNK         0.0230 
     16 S16        29.1363   25.7271   -1.3802 S.3       12 UNK        -0.2608 
     17 C17        28.6604   27.2051   -0.4270 C.3       12 UNK        -0.0989 
     18 CA         27.5933   28.0842   -1.1226 C.3       5 UNK         0.0716 
     19 N          26.3756   27.3136   -1.3768 N.am      5 UNK        -0.4135 
     20 C          25.2580   27.7328   -1.9836 C.2       4 UNK         0.5031 
     21 O          25.1504   28.8164   -2.5579 O.2       4 UNK        -0.5229 
     22 CA         24.0379   26.7930   -1.8948 C.3       4 UNK         0.0329 
     23 CB         23.8155   26.0746   -3.2353 C.3       4 UNK        -0.2001 
     24 N          24.1334   25.7872   -0.8270 N.am      4 UNK        -0.4303 
     25 C          24.2557   26.0224    0.4874 C.2       3 UNK         0.5044 
     26 O          24.2564   27.1530    0.9758 O.2       3 UNK        -0.5152 
     27 CA         24.5035   24.8061    1.3999 C.3       3 UNK         0.0319 
     28 CB         23.1893   24.0720    1.7295 C.3       3 UNK        -0.2001 
     29 N          25.5439   23.8861    0.9058 N.am      3 UNK        -0.4354 
     30 C          25.5180   23.0947   -0.1812 C.2       2 UNK         0.4964 
     31 O          24.5431   23.0084   -0.9293 O.2       2 UNK        -0.5047 
     32 CA         26.7891   22.3041   -0.5442 C.3       2 UNK         0.0288 
     33 CB         27.1954   22.5643   -2.0063 C.3       2 UNK        -0.2113 
     34 N          27.9273   22.6103    0.3281 N.am      2 UNK        -0.4145 
     35 C          28.2692   21.8832    1.4012 C.2       1 UNK         0.5006 
     36 O          27.6618   20.8738    1.7635 O.2       1 UNK        -0.5103 
     37 C          27.3589   29.3380   -0.2484 C.2       5 UNK         0.5055 
     38 O          28.1837   30.2508   -0.3045 O.2       5 UNK        -0.5220 
     39 N          26.2916   29.3406    0.5702 N.am      6 UNK        -0.4450 
     40 CA         26.0096   30.2898    1.6508 C.3       6 UNK         0.0367 
     41 CB         25.8188   31.7331    1.1282 C.3       6 UNK        -0.1929 
     42 C          27.0637   30.1358    2.7613 C.2       6 UNK         0.5070 
     43 O          27.0570   29.1084    3.4400 O.2       6 UNK        -0.5237 
     44 N          27.9535   31.1193    2.9221 N.am      7 UNK        -0.4739 
     45 CA         29.0829   31.0786    3.8457 C.3       7 UNK         0.0276 
     46 CB         28.6327   31.5125    5.2532 C.3       7 UNK        -0.1927 
     47 C          30.1985   31.9866    3.3181 C.2       7 UNK         0.5013 
     48 O          29.9305   32.9090    2.5431 O.2       7 UNK        -0.5193 
     49 N          31.4206   31.7203    3.7800 N.am      8 UNK        -0.4253 
     50 CA         32.6404   32.4802    3.5306 C.3       8 UNK         0.0242 
     51 CB         33.2567   32.0582    2.1841 C.3       8 UNK        -0.2000 
     52 C          33.5946   32.1967    4.6970 C.2       8 UNK         0.4948 
     53 O          33.3260   31.2928    5.4924 O.2       8 UNK        -0.5275 
     54 N          34.7124   32.9305    4.7742 N.am      9 UNK        -0.4246 
     55 CA         35.7123   32.8321    5.8510 C.3       9 UNK         0.0261 
     56 CB         36.8314   33.8548    5.5937 C.3       9 UNK        -0.1959 
     57 C          36.3125   31.4270    6.0748 C.2       9 UNK         0.5033 
     58 O          36.7689   31.1361    7.1812 O.2       9 UNK        -0.5390 
     59 N          36.2892   30.5836    5.0352 N.am      10 UNK        -0.4215 
     60 CA         36.7361   29.1914    5.0665 C.3       10 UNK         0.0240 
     61 CB         37.1499   28.7812    3.6419 C.3       10 UNK        -0.1982 
     62 C          35.6996   28.2008    5.6385 C.2       10 UNK         0.4970 
     63 O          36.0676   27.0445    5.8526 O.2       10 UNK        -0.4916 
     64 N          34.4444   28.6226    5.8537 N.am      11 UNK        -0.4279 
     65 CA         33.3387   27.7376    6.2690 C.3       11 UNK         0.1003 
     66 C          32.3046   28.3658    7.2443 C.2       11 UNK         0.5709 
     67 N          32.2650   29.6759    7.4410 N.am      11 UNK        -0.7358 
     68 O          31.5370   27.6372    7.8691 O.2       11 UNK        -0.4999 
     69 C69        32.6648   27.0248    5.0627 C.3       12 UNK        -0.0954 
     70 S70        32.1159   28.1669    3.7438 S.3       12 UNK        -0.2268 
     71 C71        33.3171   27.7988    2.4259 C.3       12 UNK         0.0203 
     72 H72        29.9986   26.3909    2.2926 H         1 UNK         0.0888 
     73 H73        28.3837   26.8054    2.8752 H         1 UNK         0.0888 
     74 H74        29.6025   26.2263    4.0054 H         1 UNK         0.0888 
     75 H75        30.5882   24.1455    2.0800 H         1 UNK         0.3017 
     76 H76        29.3155   22.0229    3.2428 H         1 UNK         0.0873 
     77 H77        30.6439   20.5607    1.7639 H         1 UNK         0.0745 
     78 H78        30.9458   21.8709    0.6590 H         1 UNK         0.0745 
     79 H79        33.3718   22.2002    0.5533 H         1 UNK         0.0705 
     80 H80        34.3473   22.8633    1.8349 H         1 UNK         0.0705 
     81 H81        33.8656   25.1361    2.7720 H         1 UNK         0.1334 
     82 H82        31.8399   27.8549    0.1491 H         1 UNK         0.1417 
     83 H83        31.8242   23.6505   -0.6938 H         1 UNK         0.1562 
     84 H84        31.2547   25.3546   -2.4520 H         1 UNK         0.0748 
     85 H85        31.0625   27.0355   -2.0321 H         1 UNK         0.0748 
     86 H86        29.5499   27.7962   -0.2072 H         1 UNK         0.0940 
     87 H87        28.2826   26.8615    0.5349 H         1 UNK         0.0940 
     88 H88        27.9810   28.4212   -2.0860 H         1 UNK         0.0703 
     89 H89        26.3636   26.3851   -0.9842 H         1 UNK         0.3081 
     90 H90        23.1655   27.4148   -1.6845 H         1 UNK         0.0719 
     91 H91        24.6482   25.4140   -3.4813 H         1 UNK         0.0809 
     92 H92        22.9056   25.4745   -3.2176 H         1 UNK         0.0809 
     93 H93        23.7136   26.7909   -4.0519 H         1 UNK         0.0809 
     94 H94        24.1528   24.8109   -1.1147 H         1 UNK         0.2990 
     95 H95        24.8951   25.2007    2.3391 H         1 UNK         0.0690 
     96 H96        23.3605   23.2474    2.4215 H         1 UNK         0.0788 
     97 H97        22.7066   23.6680    0.8393 H         1 UNK         0.0788 
     98 H98        22.4767   24.7490    2.2023 H         1 UNK         0.0788 
     99 H99        26.3880   23.8837    1.4715 H         1 UNK         0.2993 
    100 H100       26.5340   21.2455   -0.4587 H         1 UNK         0.0949 
    101 H101       27.3278   23.6264   -2.2096 H         1 UNK         0.0767 
    102 H102       28.1243   22.0532   -2.2602 H         1 UNK         0.0767 
    103 H103       26.4308   22.1998   -2.6937 H         1 UNK         0.0767 
    104 H104       28.4711   23.4321    0.1023 H         1 UNK         0.3013 
    105 H105       25.6815   28.5282    0.5641 H         1 UNK         0.3121 
    106 H106       25.0602   29.9765    2.0883 H         1 UNK         0.0774 
    107 H107       25.5422   32.4057    1.9411 H         1 UNK         0.0815 
    108 H108       26.7154   32.1390    0.6603 H         1 UNK         0.0815 
    109 H109       25.0171   31.7760    0.3910 H         1 UNK         0.0815 
    110 H110       27.9565   31.9078    2.2863 H         1 UNK         0.2987 
    111 H111       29.4720   30.0579    3.8875 H         1 UNK         0.0949 
    112 H112       28.2325   32.5271    5.2516 H         1 UNK         0.0806 
    113 H113       27.8624   30.8490    5.6464 H         1 UNK         0.0806 
    114 H114       29.4658   31.4893    5.9571 H         1 UNK         0.0806 
    115 H115       31.5509   30.9784    4.4586 H         1 UNK         0.3010 
    116 H116       32.4083   33.5473    3.5216 H         1 UNK         0.0829 
    117 H117       32.5562   32.2087    1.3623 H         1 UNK         0.0813 
    118 H118       34.1487   32.6421    1.9550 H         1 UNK         0.0813 
    119 H119       33.5445   31.0072    2.1873 H         1 UNK         0.0813 
    120 H120       34.8716   33.6447    4.0774 H         1 UNK         0.3038 
    121 H121       35.2080   33.1079    6.7795 H         1 UNK         0.0769 
    122 H122       37.3508   33.6568    4.6553 H         1 UNK         0.0811 
    123 H123       37.5768   33.8280    6.3902 H         1 UNK         0.0811 
    124 H124       36.4408   34.8718    5.5552 H         1 UNK         0.0811 
    125 H125       35.8946   30.9158    4.1678 H         1 UNK         0.3204 
    126 H126       37.6206   29.1241    5.7036 H         1 UNK         0.0748 
    127 H127       37.4895   27.7448    3.6114 H         1 UNK         0.0771 
    128 H128       36.3248   28.8758    2.9358 H         1 UNK         0.0771 
    129 H129       37.9724   29.3974    3.2778 H         1 UNK         0.0771 
    130 H130       34.1931   29.5895    5.6753 H         1 UNK         0.2980 
    131 H131       33.7796   26.9474    6.8799 H         1 UNK         0.0545 
    132 H132       32.8047   30.3112    6.8587 H         1 UNK         0.3459 
    133 H133       31.5997   30.0479    8.0987 H         1 UNK         0.3459 
    134 H134       31.8066   26.4332    5.3857 H         1 UNK         0.0616 
    135 H135       33.3657   26.3024    4.6474 H         1 UNK         0.0616 
    136 H136       34.2986   27.6080    2.8604 H         1 UNK         0.0634 
    137 H137       33.4313   28.6846    1.8010 H         1 UNK         0.0634 
@<TRIPOS>BOND
     1    1    2 1    
     2    1   72 1    
     3    1   73 1    
     4    1   74 1    
     5    2    3 2    
     6    2    4 am   BACKBONE|DICT|INTERRES
     7    4    5 1    
     8    4   75 1    
     9    5    6 1    
    10    5   35 1    
    11    5   76 1    
    12    6    7 1    
    13    6   77 1    
    14    6   78 1    
    15    7    8 1    
    16    8    9 1    
    17    8   79 1    
    18    8   80 1    
    19    9   10 ar   
    20    9   14 ar   
    21   10   11 ar   
    22   10   81 1    
    23   11   12 ar   
    24   11   71 1    
    25   12   13 ar   
    26   12   82 1    
    27   13   14 ar   
    28   13   15 1    
    29   14   83 1    
    30   15   16 1    
    31   15   84 1    
    32   15   85 1    
    33   16   17 1    
    34   17   18 1    
    35   17   86 1    
    36   17   87 1    
    37   18   19 1    
    38   18   37 1    
    39   18   88 1    
    40   19   20 am   BACKBONE|DICT|INTERRES
    41   19   89 1    
    42   20   21 2    
    43   20   22 1    
    44   22   23 1    
    45   22   24 1    
    46   22   90 1    
    47   23   91 1    
    48   23   92 1    
    49   23   93 1    
    50   24   25 am   BACKBONE|DICT|INTERRES
    51   24   94 1    
    52   25   26 2    
    53   25   27 1    
    54   27   28 1    
    55   27   29 1    
    56   27   95 1    
    57   28   96 1    
    58   28   97 1    
    59   28   98 1    
    60   29   30 am   BACKBONE|DICT|INTERRES
    61   29   99 1    
    62   30   31 2    
    63   30   32 1    
    64   32   33 1    
    65   32   34 1    
    66   32  100 1    
    67   33  101 1    
    68   33  102 1    
    69   33  103 1    
    70   34   35 am   BACKBONE|DICT|INTERRES
    71   34  104 1    
    72   35   36 2    
    73   37   38 2    
    74   37   39 am   BACKBONE|DICT|INTERRES
    75   39   40 1    
    76   39  105 1    
    77   40   41 1    
    78   40   42 1    
    79   40  106 1    
    80   41  107 1    
    81   41  108 1    
    82   41  109 1    
    83   42   43 2    
    84   42   44 am   BACKBONE|DICT|INTERRES
    85   44   45 1    
    86   44  110 1    
    87   45   46 1    
    88   45   47 1    
    89   45  111 1    
    90   46  112 1    
    91   46  113 1    
    92   46  114 1    
    93   47   48 2    
    94   47   49 am   BACKBONE|DICT|INTERRES
    95   49   50 1    
    96   49  115 1    
    97   50   51 1    
    98   50   52 1    
    99   50  116 1    
   100   51  117 1    
   101   51  118 1    
   102   51  119 1    
   103   52   53 2    
   104   52   54 am   BACKBONE|DICT|INTERRES
   105   54   55 1    
   106   54  120 1    
   107   55   56 1    
   108   55   57 1    
   109   55  121 1    
   110   56  122 1    
   111   56  123 1    
   112   56  124 1    
   113   57   58 2    
   114   57   59 am   BACKBONE|DICT|INTERRES
   115   59   60 1    
   116   59  125 1    
   117   60   61 1    
   118   60   62 1    
   119   60  126 1    
   120   61  127 1    
   121   61  128 1    
   122   61  129 1    
   123   62   63 2    
   124   62   64 am   BACKBONE|DICT|INTERRES
   125   64   65 1    
   126   64  130 1    
   127   65   66 1    
   128   65   69 1    
   129   65  131 1    
   130   66   67 am   BACKBONE|DICT|INTERRES
   131   66   68 2    
   132   67  132 1    
   133   67  133 1    
   134   69   70 1    
   135   69  134 1    
   136   69  135 1    
   137   70   71 1    
   138   71  136 1    
   139   71  137 1    
@<TRIPOS>SUBSTRUCTURE
     1 UNK         1 GROUP             0       ****    0 ROOT    
