@<TRIPOS>MOLECULE
3R136
137   139    1
SMALL
USER_CHARGES


@<TRIPOS>ATOM
      1 CA         25.3749   20.2106    1.7305 C.3       0 UNK        -0.1979 
      2 C          26.2080   21.2367    0.9791 C.2       0 UNK         0.4864 
      3 O          25.6836   22.2763    0.5780 O.2       0 UNK        -0.5359 
      4 N          27.5089   20.9700    0.7988 N.am      1 UNK        -0.4318 
      5 CA         28.4576   21.8369    0.0861 C.3       1 UNK         0.0824 
      6 C6         29.8399   21.1624   -0.0937 C.3       12 UNK        -0.0944 
      7 S7         30.6494   20.6849    1.4760 S.3       12 UNK        -0.2672 
      8 C8         32.3060   21.4196    1.2935 C.3       12 UNK         0.0333 
      9 C9         32.2828   22.9396    1.3794 C.ar      12 UNK        -0.0807 
     10 C10        32.2263   23.5736    2.6242 C.ar      12 UNK        -0.0894 
     11 C11        32.2393   24.9695    2.7118 C.ar      12 UNK        -0.0804 
     12 C12        32.2970   25.7330    1.5412 C.ar      12 UNK        -0.0824 
     13 C13        32.3645   25.1091    0.2912 C.ar      12 UNK        -0.0762 
     14 C14        32.3579   23.7136    0.2176 C.ar      12 UNK        -0.0782 
     15 C15        32.4830   25.9335   -0.9827 C.3       12 UNK         0.0230 
     16 S16        30.8970   26.0551   -1.8651 S.3       12 UNK        -0.2608 
     17 C17        29.9967   27.2103   -0.7825 C.3       12 UNK        -0.0989 
     18 CA         28.6502   27.6574   -1.4047 C.3       5 UNK         0.0716 
     19 N          27.7017   26.5424   -1.4675 N.am      5 UNK        -0.4135 
     20 C          26.5755   26.5184   -2.1911 C.2       4 UNK         0.5031 
     21 O          26.2635   27.3846   -3.0105 O.2       4 UNK        -0.5229 
     22 CA         25.6252   25.3331   -1.9430 C.3       4 UNK         0.0329 
     23 CB         26.1181   24.0701   -2.6679 C.3       4 UNK        -0.2001 
     24 N          25.4582   25.0507   -0.5147 N.am      4 UNK        -0.4303 
     25 C          24.8011   25.8416    0.3481 C.2       3 UNK         0.5044 
     26 O          24.1616   26.8387    0.0109 O.2       3 UNK        -0.5152 
     27 CA         24.8550   25.4599    1.8373 C.3       3 UNK         0.0319 
     28 CB         23.6723   24.5509    2.2109 C.3       3 UNK        -0.2001 
     29 N          26.1141   24.7941    2.1791 N.am      3 UNK        -0.4354 
     30 C          27.2195   25.4324    2.5944 C.2       2 UNK         0.4964 
     31 O          27.2596   26.6368    2.8421 O.2       2 UNK        -0.5047 
     32 CA         28.5034   24.5999    2.7810 C.3       2 UNK         0.0288 
     33 CB         28.7338   24.2893    4.2689 C.3       2 UNK        -0.2113 
     34 N          28.5188   23.3451    2.0270 N.am      2 UNK        -0.4145 
     35 C          28.5595   23.2545    0.6903 C.2       1 UNK         0.5006 
     36 O          28.5846   24.2313   -0.0569 O.2       1 UNK        -0.5103 
     37 C          28.0631   28.8445   -0.6116 C.2       5 UNK         0.5055 
     38 O          27.0794   28.6897    0.1163 O.2       5 UNK        -0.5220 
     39 N          28.7068   30.0137   -0.7400 N.am      6 UNK        -0.4450 
     40 CA         28.4369   31.1942    0.0844 C.3       6 UNK         0.0367 
     41 CB         29.2278   32.3933   -0.4636 C.3       6 UNK        -0.1929 
     42 C          28.8020   30.9348    1.5573 C.2       6 UNK         0.5070 
     43 O          29.8154   30.2877    1.8294 O.2       6 UNK        -0.5237 
     44 N          27.9730   31.4480    2.4736 N.am      7 UNK        -0.4739 
     45 CA         28.1165   31.2370    3.9172 C.3       7 UNK         0.0276 
     46 CB         26.7659   31.5103    4.5995 C.3       7 UNK        -0.1927 
     47 C          29.2245   32.0853    4.5655 C.2       7 UNK         0.5013 
     48 O          29.6772   31.7340    5.6553 O.2       7 UNK        -0.5193 
     49 N          29.6202   33.1868    3.9149 N.am      8 UNK        -0.4253 
     50 CA         30.6597   34.1001    4.3879 C.3       8 UNK         0.0242 
     51 CB         30.3871   35.5049    3.8238 C.3       8 UNK        -0.2000 
     52 C          32.0564   33.6158    3.9673 C.2       8 UNK         0.4948 
     53 O          32.2260   33.1948    2.8207 O.2       8 UNK        -0.5275 
     54 N          33.0206   33.7622    4.8900 N.am      9 UNK        -0.4246 
     55 CA         34.4527   33.4333    4.8024 C.3       9 UNK         0.0261 
     56 CB         35.1265   34.1459    3.6115 C.3       9 UNK        -0.1959 
     57 C          34.7489   31.9217    4.7846 C.2       9 UNK         0.5033 
     58 O          33.9207   31.1250    4.3379 O.2       9 UNK        -0.5390 
     59 N          35.9439   31.5607    5.2798 N.am      10 UNK        -0.4215 
     60 CA         36.5339   30.2155    5.3987 C.3       10 UNK         0.0240 
     61 CB         36.7950   29.5931    4.0113 C.3       10 UNK        -0.1982 
     62 C          35.7463   29.2539    6.3093 C.2       10 UNK         0.4970 
     63 O          36.2650   28.8261    7.3411 O.2       10 UNK        -0.4916 
     64 N          34.5137   28.9499    5.9074 N.am      11 UNK        -0.4279 
     65 CA         33.5300   28.1095    6.5974 C.3       11 UNK         0.1003 
     66 C          32.0690   28.6173    6.4283 C.2       11 UNK         0.5709 
     67 N          31.8268   29.7433    5.7663 N.am      11 UNK        -0.7358 
     68 O          31.1402   28.0028    6.9470 O.2       11 UNK        -0.4999 
     69 C69        33.7115   26.5942    6.2966 C.3       12 UNK        -0.0954 
     70 S70        33.9012   26.1828    4.5272 S.3       12 UNK        -0.2268 
     71 C71        32.2239   25.6511    4.0716 C.3       12 UNK         0.0203 
     72 H72        24.5659   19.8501    1.0959 H         1 UNK         0.0888 
     73 H73        25.9697   19.3528    2.0438 H         1 UNK         0.0888 
     74 H74        24.9354   20.6632    2.6189 H         1 UNK         0.0888 
     75 H75        27.8974   20.1109    1.1626 H         1 UNK         0.3017 
     76 H76        28.0432   21.9714   -0.9151 H         1 UNK         0.0873 
     77 H77        29.7232   20.2557   -0.6894 H         1 UNK         0.0745 
     78 H78        30.4963   21.8046   -0.6813 H         1 UNK         0.0745 
     79 H79        32.9508   21.0248    2.0801 H         1 UNK         0.0705 
     80 H80        32.7460   21.0908    0.3506 H         1 UNK         0.0705 
     81 H81        32.1855   22.9774    3.5256 H         1 UNK         0.1334 
     82 H82        32.3149   26.8125    1.6076 H         1 UNK         0.1417 
     83 H83        32.4187   23.2331   -0.7493 H         1 UNK         0.1562 
     84 H84        33.2166   25.4713   -1.6448 H         1 UNK         0.0748 
     85 H85        32.8620   26.9333   -0.7652 H         1 UNK         0.0748 
     86 H86        30.6507   28.0647   -0.5974 H         1 UNK         0.0940 
     87 H87        29.8328   26.7372    0.1881 H         1 UNK         0.0940 
     88 H88        28.8309   28.0050   -2.4243 H         1 UNK         0.0703 
     89 H89        27.9081   25.7543   -0.8577 H         1 UNK         0.3081 
     90 H90        24.6467   25.5964   -2.3503 H         1 UNK         0.0719 
     91 H91        27.1107   23.7703   -2.3318 H         1 UNK         0.0809 
     92 H92        25.4419   23.2301   -2.5071 H         1 UNK         0.0809 
     93 H93        26.1775   24.2392   -3.7438 H         1 UNK         0.0809 
     94 H94        25.8810   24.1999   -0.1611 H         1 UNK         0.2990 
     95 H95        24.7613   26.3807    2.4174 H         1 UNK         0.0690 
     96 H96        23.6867   24.2976    3.2710 H         1 UNK         0.0788 
     97 H97        23.6762   23.6202    1.6433 H         1 UNK         0.0788 
     98 H98        22.7228   25.0487    2.0096 H         1 UNK         0.0788 
     99 H99        26.1670   23.8055    1.9655 H         1 UNK         0.2993 
    100 H100       29.3354   25.2096    2.4221 H         1 UNK         0.0949 
    101 H101       28.8034   25.2087    4.8522 H         1 UNK         0.0767 
    102 H102       27.9197   23.6965    4.6879 H         1 UNK         0.0767 
    103 H103       29.6624   23.7393    4.4212 H         1 UNK         0.0767 
    104 H104       28.4982   22.4880    2.5603 H         1 UNK         0.3013 
    105 H105       29.5193   30.0607   -1.3375 H         1 UNK         0.3121 
    106 H106       27.3699   31.4175    0.0145 H         1 UNK         0.0774 
    107 H107       29.0145   33.2964    0.1098 H         1 UNK         0.0815 
    108 H108       30.3044   32.2241   -0.4121 H         1 UNK         0.0815 
    109 H109       28.9680   32.6018   -1.5017 H         1 UNK         0.0815 
    110 H110       27.1623   31.9681    2.1681 H         1 UNK         0.2987 
    111 H111       28.3747   30.1886    4.0864 H         1 UNK         0.0949 
    112 H112       26.8284   31.3319    5.6741 H         1 UNK         0.0806 
    113 H113       26.4427   32.5426    4.4595 H         1 UNK         0.0806 
    114 H114       25.9851   30.8561    4.2107 H         1 UNK         0.0806 
    115 H115       29.2374   33.3641    2.9985 H         1 UNK         0.3010 
    116 H116       30.6116   34.1563    5.4780 H         1 UNK         0.0829 
    117 H117       29.4111   35.8763    4.1369 H         1 UNK         0.0813 
    118 H118       31.1330   36.2186    4.1764 H         1 UNK         0.0813 
    119 H119       30.4171   35.5156    2.7333 H         1 UNK         0.0813 
    120 H120       32.7338   34.1129    5.7936 H         1 UNK         0.3038 
    121 H121       34.8914   33.8352    5.7173 H         1 UNK         0.0769 
    122 H122       36.2099   34.0251    3.6443 H         1 UNK         0.0811 
    123 H123       34.9206   35.2162    3.6198 H         1 UNK         0.0811 
    124 H124       34.7900   33.7466    2.6542 H         1 UNK         0.0811 
    125 H125       36.5287   32.3006    5.6447 H         1 UNK         0.3204 
    126 H126       37.5063   30.3601    5.8726 H         1 UNK         0.0748 
    127 H127       37.2719   28.6166    4.1060 H         1 UNK         0.0771 
    128 H128       35.8759   29.4495    3.4423 H         1 UNK         0.0771 
    129 H129       37.4585   30.2210    3.4167 H         1 UNK         0.0771 
    130 H130       34.1785   29.4207    5.0720 H         1 UNK         0.2980 
    131 H131       33.7090   28.2361    7.6666 H         1 UNK         0.0545 
    132 H132       30.8851   30.1130    5.7340 H         1 UNK         0.3459 
    133 H133       32.5677   30.2685    5.3135 H         1 UNK         0.3459 
    134 H134       34.6192   26.2488    6.7934 H         1 UNK         0.0616 
    135 H135       32.9061   26.0017    6.7337 H         1 UNK         0.0616 
    136 H136       31.8362   24.9718    4.8321 H         1 UNK         0.0634 
    137 H137       31.5573   26.5148    4.0529 H         1 UNK         0.0634 
@<TRIPOS>BOND
     1    1    2 1    
     2    1   72 1    
     3    1   73 1    
     4    1   74 1    
     5    2    3 2    
     6    2    4 am   BACKBONE|DICT|INTERRES
     7    4    5 1    
     8    4   75 1    
     9    5    6 1    
    10    5   35 1    
    11    5   76 1    
    12    6    7 1    
    13    6   77 1    
    14    6   78 1    
    15    7    8 1    
    16    8    9 1    
    17    8   79 1    
    18    8   80 1    
    19    9   10 ar   
    20    9   14 ar   
    21   10   11 ar   
    22   10   81 1    
    23   11   12 ar   
    24   11   71 1    
    25   12   13 ar   
    26   12   82 1    
    27   13   14 ar   
    28   13   15 1    
    29   14   83 1    
    30   15   16 1    
    31   15   84 1    
    32   15   85 1    
    33   16   17 1    
    34   17   18 1    
    35   17   86 1    
    36   17   87 1    
    37   18   19 1    
    38   18   37 1    
    39   18   88 1    
    40   19   20 am   BACKBONE|DICT|INTERRES
    41   19   89 1    
    42   20   21 2    
    43   20   22 1    
    44   22   23 1    
    45   22   24 1    
    46   22   90 1    
    47   23   91 1    
    48   23   92 1    
    49   23   93 1    
    50   24   25 am   BACKBONE|DICT|INTERRES
    51   24   94 1    
    52   25   26 2    
    53   25   27 1    
    54   27   28 1    
    55   27   29 1    
    56   27   95 1    
    57   28   96 1    
    58   28   97 1    
    59   28   98 1    
    60   29   30 am   BACKBONE|DICT|INTERRES
    61   29   99 1    
    62   30   31 2    
    63   30   32 1    
    64   32   33 1    
    65   32   34 1    
    66   32  100 1    
    67   33  101 1    
    68   33  102 1    
    69   33  103 1    
    70   34   35 am   BACKBONE|DICT|INTERRES
    71   34  104 1    
    72   35   36 2    
    73   37   38 2    
    74   37   39 am   BACKBONE|DICT|INTERRES
    75   39   40 1    
    76   39  105 1    
    77   40   41 1    
    78   40   42 1    
    79   40  106 1    
    80   41  107 1    
    81   41  108 1    
    82   41  109 1    
    83   42   43 2    
    84   42   44 am   BACKBONE|DICT|INTERRES
    85   44   45 1    
    86   44  110 1    
    87   45   46 1    
    88   45   47 1    
    89   45  111 1    
    90   46  112 1    
    91   46  113 1    
    92   46  114 1    
    93   47   48 2    
    94   47   49 am   BACKBONE|DICT|INTERRES
    95   49   50 1    
    96   49  115 1    
    97   50   51 1    
    98   50   52 1    
    99   50  116 1    
   100   51  117 1    
   101   51  118 1    
   102   51  119 1    
   103   52   53 2    
   104   52   54 am   BACKBONE|DICT|INTERRES
   105   54   55 1    
   106   54  120 1    
   107   55   56 1    
   108   55   57 1    
   109   55  121 1    
   110   56  122 1    
   111   56  123 1    
   112   56  124 1    
   113   57   58 2    
   114   57   59 am   BACKBONE|DICT|INTERRES
   115   59   60 1    
   116   59  125 1    
   117   60   61 1    
   118   60   62 1    
   119   60  126 1    
   120   61  127 1    
   121   61  128 1    
   122   61  129 1    
   123   62   63 2    
   124   62   64 am   BACKBONE|DICT|INTERRES
   125   64   65 1    
   126   64  130 1    
   127   65   66 1    
   128   65   69 1    
   129   65  131 1    
   130   66   67 am   BACKBONE|DICT|INTERRES
   131   66   68 2    
   132   67  132 1    
   133   67  133 1    
   134   69   70 1    
   135   69  134 1    
   136   69  135 1    
   137   70   71 1    
   138   71  136 1    
   139   71  137 1    
@<TRIPOS>SUBSTRUCTURE
     1 UNK         1 GROUP             0       ****    0 ROOT    
