@<TRIPOS>MOLECULE
3R136
137   139    1
SMALL
USER_CHARGES


@<TRIPOS>ATOM
      1 CA         25.9637   23.3778    3.2060 C.3       0 UNK        -0.1979 
      2 C          26.4047   22.7159    1.9094 C.2       0 UNK         0.4864 
      3 O          25.6623   21.9026    1.3579 O.2       0 UNK        -0.5359 
      4 N          27.6071   23.0532    1.4224 N.am      1 UNK        -0.4318 
      5 CA         28.2532   22.4265    0.2620 C.3       1 UNK         0.0824 
      6 C6         29.7511   22.8031    0.1530 C.3       12 UNK        -0.0944 
      7 S7         30.0785   24.5872   -0.0675 S.3       12 UNK        -0.2672 
      8 C8         31.8569   24.6432    0.3455 C.3       12 UNK         0.0333 
      9 C9         32.1696   25.1445    1.7555 C.ar      12 UNK        -0.0807 
     10 C10        33.3784   25.8117    1.9769 C.ar      12 UNK        -0.0894 
     11 C11        33.6949   26.3205    3.2386 C.ar      12 UNK        -0.0804 
     12 C12        32.7924   26.1579    4.2920 C.ar      12 UNK        -0.0824 
     13 C13        31.5856   25.4805    4.0958 C.ar      12 UNK        -0.0762 
     14 C14        31.2933   24.9547    2.8323 C.ar      12 UNK        -0.0782 
     15 C15        30.6067   25.3355    5.2582 C.3       12 UNK         0.0230 
     16 S16        28.8753   25.7399    4.8332 S.3       12 UNK        -0.2608 
     17 C17        29.0239   27.3596    4.0021 C.3       12 UNK        -0.0989 
     18 CA         28.4262   27.3024    2.5758 C.3       5 UNK         0.0716 
     19 N          26.9670   27.1489    2.6156 N.am      5 UNK        -0.4135 
     20 C          26.2281   26.5967    1.6494 C.2       4 UNK         0.5031 
     21 O          26.7090   26.1026    0.6208 O.2       4 UNK        -0.5229 
     22 CA         24.7069   26.6040    1.8525 C.3       4 UNK         0.0329 
     23 CB         24.1103   27.9936    1.5708 C.3       4 UNK        -0.2001 
     24 N          24.1721   25.6389    0.9085 N.am      4 UNK        -0.4303 
     25 C          23.0675   24.8918    1.0003 C.2       3 UNK         0.5044 
     26 O          22.2283   25.0103    1.8991 O.2       3 UNK        -0.5152 
     27 CA         22.9029   23.7795   -0.0599 C.3       3 UNK         0.0319 
     28 CB         21.6102   23.9525   -0.8839 C.3       3 UNK        -0.2001 
     29 N          24.0927   23.5968   -0.9142 N.am      3 UNK        -0.4354 
     30 C          24.5611   24.4067   -1.8804 C.2       2 UNK         0.4964 
     31 O          23.9534   25.3890   -2.3067 O.2       2 UNK        -0.5047 
     32 CA         25.9902   24.1208   -2.3739 C.3       2 UNK         0.0288 
     33 CB         26.6116   25.3173   -3.1202 C.3       2 UNK        -0.2113 
     34 N          26.8457   23.7871   -1.2324 N.am      2 UNK        -0.4145 
     35 C          27.4996   22.6298   -1.0707 C.2       1 UNK         0.5006 
     36 O          27.5028   21.7229   -1.9057 O.2       1 UNK        -0.5103 
     37 C          28.8011   28.5215    1.7065 C.2       5 UNK         0.5055 
     38 O          29.3361   29.5115    2.2081 O.2       5 UNK        -0.5220 
     39 N          28.4738   28.4277    0.4111 N.am      6 UNK        -0.4450 
     40 CA         28.5373   29.4999   -0.5861 C.3       6 UNK         0.0367 
     41 CB         27.8761   29.0004   -1.8815 C.3       6 UNK        -0.1929 
     42 C          29.9442   30.0523   -0.8792 C.2       6 UNK         0.5070 
     43 O          30.0475   31.1340   -1.4583 O.2       6 UNK        -0.5237 
     44 N          30.9953   29.3158   -0.4927 N.am      7 UNK        -0.4739 
     45 CA         32.3968   29.7034   -0.6714 C.3       7 UNK         0.0276 
     46 CB         33.3027   28.5258   -0.2857 C.3       7 UNK        -0.1927 
     47 C          32.7994   30.9604    0.1201 C.2       7 UNK         0.5013 
     48 O          33.5901   31.7506   -0.3958 O.2       7 UNK        -0.5193 
     49 N          32.2446   31.1157    1.3325 N.am      8 UNK        -0.4253 
     50 CA         32.4498   32.2342    2.2651 C.3       8 UNK         0.0242 
     51 CB         33.9441   32.5763    2.4806 C.3       8 UNK        -0.2000 
     52 C          31.8268   31.9461    3.6371 C.2       8 UNK         0.4948 
     53 O          31.4836   32.8960    4.3416 O.2       8 UNK        -0.5275 
     54 N          31.7622   30.6648    4.0344 N.am      9 UNK        -0.4246 
     55 CA         31.3403   30.1320    5.3426 C.3       9 UNK         0.0261 
     56 CB         29.9110   30.5685    5.7191 C.3       9 UNK        -0.1959 
     57 C          32.3377   30.4312    6.4749 C.2       9 UNK         0.5033 
     58 O          32.6836   29.5216    7.2298 O.2       9 UNK        -0.5390 
     59 N          32.8500   31.6686    6.5237 N.am      10 UNK        -0.4215 
     60 CA         33.9523   32.1210    7.3820 C.3       10 UNK         0.0240 
     61 CB         34.1451   33.6339    7.1892 C.3       10 UNK        -0.1982 
     62 C          35.2794   31.3725    7.1395 C.2       10 UNK         0.4970 
     63 O          36.1450   31.3797    8.0152 O.2       10 UNK        -0.4916 
     64 N          35.3997   30.7231    5.9745 N.am      11 UNK        -0.4279 
     65 CA         36.4344   29.7390    5.6363 C.3       11 UNK         0.1003 
     66 C          36.4256   28.4498    6.5129 C.2       11 UNK         0.5709 
     67 N          35.3480   28.1249    7.2204 N.am      11 UNK        -0.7358 
     68 O          37.4226   27.7330    6.5515 O.2       11 UNK        -0.4999 
     69 C69        36.4051   29.4011    4.1194 C.3       12 UNK        -0.0954 
     70 S70        34.7700   28.8438    3.5161 S.3       12 UNK        -0.2268 
     71 C71        35.0112   27.0430    3.4717 C.3       12 UNK         0.0203 
     72 H72        25.9647   22.6465    4.0136 H         1 UNK         0.0888 
     73 H73        26.6234   24.1958    3.4919 H         1 UNK         0.0888 
     74 H74        24.9526   23.7701    3.1096 H         1 UNK         0.0888 
     75 H75        28.1515   23.7641    1.8876 H         1 UNK         0.3017 
     76 H76        28.2192   21.3509    0.4503 H         1 UNK         0.0873 
     77 H77        30.2178   22.2632   -0.6733 H         1 UNK         0.0745 
     78 H78        30.2692   22.4646    1.0519 H         1 UNK         0.0745 
     79 H79        32.3072   23.6594    0.2082 H         1 UNK         0.0705 
     80 H80        32.3343   25.2973   -0.3853 H         1 UNK         0.0705 
     81 H81        34.0747   25.9451    1.1600 H         1 UNK         0.1334 
     82 H82        33.0344   26.5649    5.2650 H         1 UNK         0.1417 
     83 H83        30.3660   24.4205    2.6895 H         1 UNK         0.1562 
     84 H84        30.9062   25.9738    6.0912 H         1 UNK         0.0748 
     85 H85        30.6477   24.3098    5.6269 H         1 UNK         0.0748 
     86 H86        30.0725   27.6516    3.9614 H         1 UNK         0.0940 
     87 H87        28.5220   28.1155    4.6074 H         1 UNK         0.0940 
     88 H88        28.8570   26.4331    2.0751 H         1 UNK         0.0703 
     89 H89        26.5034   27.5463    3.4196 H         1 UNK         0.3081 
     90 H90        24.4771   26.2898    2.8727 H         1 UNK         0.0719 
     91 H91        24.4927   28.7377    2.2706 H         1 UNK         0.0809 
     92 H92        24.3492   28.3372    0.5630 H         1 UNK         0.0809 
     93 H93        23.0247   27.9845    1.6703 H         1 UNK         0.0809 
     94 H94        24.8085   25.4548    0.1397 H         1 UNK         0.2990 
     95 H95        22.8083   22.8484    0.5016 H         1 UNK         0.0690 
     96 H96        21.5056   23.1653   -1.6307 H         1 UNK         0.0788 
     97 H97        21.5759   24.9135   -1.3979 H         1 UNK         0.0788 
     98 H98        20.7323   23.9055   -0.2384 H         1 UNK         0.0788 
     99 H99        24.6953   22.8363   -0.6213 H         1 UNK         0.2993 
    100 H100       25.9195   23.2815   -3.0691 H         1 UNK         0.0949 
    101 H101       26.6580   26.2031   -2.4856 H         1 UNK         0.0767 
    102 H102       27.6250   25.0920   -3.4533 H         1 UNK         0.0767 
    103 H103       26.0293   25.5757   -4.0057 H         1 UNK         0.0767 
    104 H104       26.9183   24.4914   -0.5021 H         1 UNK         0.3013 
    105 H105       28.0196   27.5677    0.1189 H         1 UNK         0.3121 
    106 H106       27.9464   30.3336   -0.2012 H         1 UNK         0.0774 
    107 H107       27.8631   29.7819   -2.6426 H         1 UNK         0.0815 
    108 H108       28.4091   28.1459   -2.3006 H         1 UNK         0.0815 
    109 H109       26.8416   28.7013   -1.7106 H         1 UNK         0.0815 
    110 H110       30.8140   28.4329   -0.0381 H         1 UNK         0.2987 
    111 H111       32.5482   29.9197   -1.7314 H         1 UNK         0.0949 
    112 H112       33.0786   27.6376   -0.8760 H         1 UNK         0.0806 
    113 H113       34.3530   28.7694   -0.4518 H         1 UNK         0.0806 
    114 H114       33.1925   28.2737    0.7686 H         1 UNK         0.0806 
    115 H115       31.5212   30.4572    1.5961 H         1 UNK         0.3010 
    116 H116       31.9413   33.1079    1.8533 H         1 UNK         0.0829 
    117 H117       34.5394   31.6873    2.6856 H         1 UNK         0.0813 
    118 H118       34.0811   33.2602    3.3199 H         1 UNK         0.0813 
    119 H119       34.3753   33.0745    1.6133 H         1 UNK         0.0813 
    120 H120       32.1476   29.9708    3.4093 H         1 UNK         0.3038 
    121 H121       31.3337   29.0484    5.2254 H         1 UNK         0.0769 
    122 H122       29.2149   30.3997    4.8981 H         1 UNK         0.0811 
    123 H123       29.8598   31.6251    5.9833 H         1 UNK         0.0811 
    124 H124       29.5486   30.0036    6.5787 H         1 UNK         0.0811 
    125 H125       32.4707   32.3414    5.8606 H         1 UNK         0.3204 
    126 H126       33.6611   31.9364    8.4179 H         1 UNK         0.0748 
    127 H127       34.4135   33.8782    6.1605 H         1 UNK         0.0771 
    128 H128       33.2378   34.1844    7.4389 H         1 UNK         0.0771 
    129 H129       34.9397   34.0130    7.8336 H         1 UNK         0.0771 
    130 H130       34.6325   30.7734    5.3230 H         1 UNK         0.2980 
    131 H131       37.3931   30.2201    5.8380 H         1 UNK         0.0545 
    132 H132       35.3682   27.2918    7.7857 H         1 UNK         0.3459 
    133 H133       34.5084   28.6934    7.1942 H         1 UNK         0.3459 
    134 H134       37.1666   28.6607    3.8669 H         1 UNK         0.0616 
    135 H135       36.6713   30.2930    3.5503 H         1 UNK         0.0616 
    136 H136       35.4451   26.7019    4.4120 H         1 UNK         0.0634 
    137 H137       35.7323   26.7970    2.6907 H         1 UNK         0.0634 
@<TRIPOS>BOND
     1    1    2 1    
     2    1   72 1    
     3    1   73 1    
     4    1   74 1    
     5    2    3 2    
     6    2    4 am   BACKBONE|DICT|INTERRES
     7    4    5 1    
     8    4   75 1    
     9    5    6 1    
    10    5   35 1    
    11    5   76 1    
    12    6    7 1    
    13    6   77 1    
    14    6   78 1    
    15    7    8 1    
    16    8    9 1    
    17    8   79 1    
    18    8   80 1    
    19    9   10 ar   
    20    9   14 ar   
    21   10   11 ar   
    22   10   81 1    
    23   11   12 ar   
    24   11   71 1    
    25   12   13 ar   
    26   12   82 1    
    27   13   14 ar   
    28   13   15 1    
    29   14   83 1    
    30   15   16 1    
    31   15   84 1    
    32   15   85 1    
    33   16   17 1    
    34   17   18 1    
    35   17   86 1    
    36   17   87 1    
    37   18   19 1    
    38   18   37 1    
    39   18   88 1    
    40   19   20 am   BACKBONE|DICT|INTERRES
    41   19   89 1    
    42   20   21 2    
    43   20   22 1    
    44   22   23 1    
    45   22   24 1    
    46   22   90 1    
    47   23   91 1    
    48   23   92 1    
    49   23   93 1    
    50   24   25 am   BACKBONE|DICT|INTERRES
    51   24   94 1    
    52   25   26 2    
    53   25   27 1    
    54   27   28 1    
    55   27   29 1    
    56   27   95 1    
    57   28   96 1    
    58   28   97 1    
    59   28   98 1    
    60   29   30 am   BACKBONE|DICT|INTERRES
    61   29   99 1    
    62   30   31 2    
    63   30   32 1    
    64   32   33 1    
    65   32   34 1    
    66   32  100 1    
    67   33  101 1    
    68   33  102 1    
    69   33  103 1    
    70   34   35 am   BACKBONE|DICT|INTERRES
    71   34  104 1    
    72   35   36 2    
    73   37   38 2    
    74   37   39 am   BACKBONE|DICT|INTERRES
    75   39   40 1    
    76   39  105 1    
    77   40   41 1    
    78   40   42 1    
    79   40  106 1    
    80   41  107 1    
    81   41  108 1    
    82   41  109 1    
    83   42   43 2    
    84   42   44 am   BACKBONE|DICT|INTERRES
    85   44   45 1    
    86   44  110 1    
    87   45   46 1    
    88   45   47 1    
    89   45  111 1    
    90   46  112 1    
    91   46  113 1    
    92   46  114 1    
    93   47   48 2    
    94   47   49 am   BACKBONE|DICT|INTERRES
    95   49   50 1    
    96   49  115 1    
    97   50   51 1    
    98   50   52 1    
    99   50  116 1    
   100   51  117 1    
   101   51  118 1    
   102   51  119 1    
   103   52   53 2    
   104   52   54 am   BACKBONE|DICT|INTERRES
   105   54   55 1    
   106   54  120 1    
   107   55   56 1    
   108   55   57 1    
   109   55  121 1    
   110   56  122 1    
   111   56  123 1    
   112   56  124 1    
   113   57   58 2    
   114   57   59 am   BACKBONE|DICT|INTERRES
   115   59   60 1    
   116   59  125 1    
   117   60   61 1    
   118   60   62 1    
   119   60  126 1    
   120   61  127 1    
   121   61  128 1    
   122   61  129 1    
   123   62   63 2    
   124   62   64 am   BACKBONE|DICT|INTERRES
   125   64   65 1    
   126   64  130 1    
   127   65   66 1    
   128   65   69 1    
   129   65  131 1    
   130   66   67 am   BACKBONE|DICT|INTERRES
   131   66   68 2    
   132   67  132 1    
   133   67  133 1    
   134   69   70 1    
   135   69  134 1    
   136   69  135 1    
   137   70   71 1    
   138   71  136 1    
   139   71  137 1    
@<TRIPOS>SUBSTRUCTURE
     1 UNK         1 GROUP             0       ****    0 ROOT    
