@<TRIPOS>MOLECULE
3R136
137   139    1
SMALL
USER_CHARGES


@<TRIPOS>ATOM
      1 CA         34.6756   26.5176   -0.5846 C.3       0 UNK        -0.1979 
      2 C          33.3422   26.2084    0.0772 C.2       0 UNK         0.4864 
      3 O          33.0831   26.7006    1.1748 O.2       0 UNK        -0.5359 
      4 N          32.5035   25.3955   -0.5760 N.am      1 UNK        -0.4318 
      5 CA         31.1835   24.9788   -0.0834 C.3       1 UNK         0.0824 
      6 C6         30.7096   23.6515   -0.7413 C.3       12 UNK        -0.0944 
      7 S7         31.9910   22.3451   -0.7572 S.3       12 UNK        -0.2672 
      8 C8         31.4552   21.2328    0.5835 C.3       12 UNK         0.0333 
      9 C9         31.2551   21.9591    1.9068 C.ar      12 UNK        -0.0807 
     10 C10        32.2709   22.7521    2.4478 C.ar      12 UNK        -0.0894 
     11 C11        32.0695   23.4685    3.6312 C.ar      12 UNK        -0.0804 
     12 C12        30.8405   23.3532    4.2964 C.ar      12 UNK        -0.0824 
     13 C13        29.8302   22.5328    3.7824 C.ar      12 UNK        -0.0762 
     14 C14        30.0407   21.8466    2.5849 C.ar      12 UNK        -0.0782 
     15 C15        28.5059   22.3693    4.5100 C.3       12 UNK         0.0230 
     16 S16        27.2452   23.5082    3.8596 S.3       12 UNK        -0.2608 
     17 C17        27.5688   25.0124    4.8392 C.3       12 UNK        -0.0989 
     18 CA         28.1869   26.1817    4.0197 C.3       5 UNK         0.0716 
     19 N          27.4189   26.5361    2.8121 N.am      5 UNK        -0.4135 
     20 C          26.1381   26.9405    2.7800 C.2       4 UNK         0.5031 
     21 O          25.4534   27.1104    3.7889 O.2       4 UNK        -0.5229 
     22 CA         25.5008   27.2509    1.4198 C.3       4 UNK         0.0329 
     23 CB         25.5536   28.7625    1.1373 C.3       4 UNK        -0.2001 
     24 N          26.1060   26.5255    0.3009 N.am      4 UNK        -0.4303 
     25 C          25.4192   26.0638   -0.7559 C.2       3 UNK         0.5044 
     26 O          24.1890   26.0848   -0.8327 O.2       3 UNK        -0.5152 
     27 CA         26.2439   25.5024   -1.9367 C.3       3 UNK         0.0319 
     28 CB         25.4950   25.5824   -3.2842 C.3       3 UNK        -0.2001 
     29 N          27.5761   26.1105   -2.0430 N.am      3 UNK        -0.4354 
     30 C          27.8750   27.4131   -2.1831 C.2       2 UNK         0.4964 
     31 O          27.0400   28.2813   -2.4388 O.2       2 UNK        -0.5047 
     32 CA         29.3486   27.8256   -1.9724 C.3       2 UNK         0.0288 
     33 CB         29.4629   29.0864   -1.0943 C.3       2 UNK        -0.2113 
     34 N          30.2292   26.7674   -1.4493 N.am      2 UNK        -0.4145 
     35 C          30.1247   26.0797   -0.2979 C.2       1 UNK         0.5006 
     36 O          29.2209   26.2447    0.5291 O.2       1 UNK        -0.5103 
     37 C          28.5010   27.3806    4.9510 C.2       5 UNK         0.5055 
     38 O          29.0789   27.1633    6.0169 O.2       5 UNK        -0.5220 
     39 N          28.1421   28.6105    4.5584 N.am      6 UNK        -0.4450 
     40 CA         28.3815   29.8315    5.3249 C.3       6 UNK         0.0367 
     41 CB         27.3020   30.0213    6.4081 C.3       6 UNK        -0.1929 
     42 C          28.4719   31.0330    4.3813 C.2       6 UNK         0.5070 
     43 O          29.5366   31.6417    4.2787 O.2       6 UNK        -0.5237 
     44 N          27.3636   31.3458    3.6930 N.am      7 UNK        -0.4739 
     45 CA         27.2432   32.4747    2.7632 C.3       7 UNK         0.0276 
     46 CB         25.7860   32.5902    2.2834 C.3       7 UNK        -0.1927 
     47 C          28.2163   32.3479    1.5777 C.2       7 UNK         0.5013 
     48 O          27.9837   31.5241    0.6933 O.2       7 UNK        -0.5193 
     49 N          29.3019   33.1353    1.6220 N.am      8 UNK        -0.4253 
     50 CA         30.4455   33.1406    0.6974 C.3       8 UNK         0.0242 
     51 CB         30.0059   33.5611   -0.7221 C.3       8 UNK        -0.2000 
     52 C          31.2647   31.8303    0.6937 C.2       8 UNK         0.4948 
     53 O          32.0203   31.5964   -0.2518 O.2       8 UNK        -0.5275 
     54 N          31.1185   31.0058    1.7390 N.am      9 UNK        -0.4246 
     55 CA         31.8168   29.7317    1.9002 C.3       9 UNK         0.0261 
     56 CB         30.8984   28.7690    2.6706 C.3       9 UNK        -0.1959 
     57 C          33.1414   29.9207    2.6539 C.2       9 UNK         0.5033 
     58 O          33.3633   30.9585    3.2837 O.2       9 UNK        -0.5390 
     59 N          33.9835   28.8823    2.6075 N.am      10 UNK        -0.4215 
     60 CA         35.1947   28.7606    3.4228 C.3       10 UNK         0.0240 
     61 CB         36.1177   27.6981    2.8041 C.3       10 UNK        -0.1982 
     62 C          34.8685   28.4078    4.8856 C.2       10 UNK         0.4970 
     63 O          35.5953   28.8253    5.7879 O.2       10 UNK        -0.4916 
     64 N          33.7860   27.6466    5.0835 N.am      11 UNK        -0.4279 
     65 CA         33.2207   27.2861    6.3892 C.3       11 UNK         0.1003 
     66 C          32.4430   28.4657    7.0348 C.2       11 UNK         0.5709 
     67 N          32.2849   28.4513    8.3517 N.am      11 UNK        -0.7358 
     68 O          31.9690   29.3785    6.3622 O.2       11 UNK        -0.4999 
     69 C69        32.3362   26.0165    6.2747 C.3       12 UNK        -0.0954 
     70 S70        33.3324   24.5269    5.9322 S.3       12 UNK        -0.2268 
     71 C71        33.1875   24.3870    4.1198 C.3       12 UNK         0.0203 
     72 H72        34.8062   27.5954   -0.6782 H         1 UNK         0.0888 
     73 H73        35.4922   26.1259    0.0209 H         1 UNK         0.0888 
     74 H74        34.7490   26.0789   -1.5795 H         1 UNK         0.0888 
     75 H75        32.7968   24.9767   -1.4473 H         1 UNK         0.3017 
     76 H76        31.2546   24.8221    0.9941 H         1 UNK         0.0873 
     77 H77        29.8151   23.2768   -0.2397 H         1 UNK         0.0745 
     78 H78        30.4219   23.8174   -1.7814 H         1 UNK         0.0745 
     79 H79        30.5385   20.7301    0.2711 H         1 UNK         0.0705 
     80 H80        32.2056   20.4526    0.7170 H         1 UNK         0.0705 
     81 H81        33.2096   22.8431    1.9178 H         1 UNK         0.1334 
     82 H82        30.6636   23.8983    5.2124 H         1 UNK         0.1417 
     83 H83        29.2509   21.2286    2.1792 H         1 UNK         0.1562 
     84 H84        28.6320   22.5037    5.5853 H         1 UNK         0.0748 
     85 H85        28.1457   21.3473    4.3818 H         1 UNK         0.0748 
     86 H86        28.2177   24.7526    5.6771 H         1 UNK         0.0940 
     87 H87        26.6261   25.3203    5.2945 H         1 UNK         0.0940 
     88 H88        29.1565   25.8434    3.6505 H         1 UNK         0.0703 
     89 H89        27.9411   26.4400    1.9461 H         1 UNK         0.3081 
     90 H90        24.4522   26.9596    1.5120 H         1 UNK         0.0719 
     91 H91        25.0948   29.3272    1.9496 H         1 UNK         0.0809 
     92 H92        26.5786   29.1182    1.0233 H         1 UNK         0.0809 
     93 H93        25.0135   29.0143    0.2244 H         1 UNK         0.0809 
     94 H94        27.1163   26.4542    0.2824 H         1 UNK         0.2990 
     95 H95        26.4074   24.4474   -1.7125 H         1 UNK         0.0690 
     96 H96        26.0976   25.1786   -4.0978 H         1 UNK         0.0788 
     97 H97        25.2301   26.6088   -3.5400 H         1 UNK         0.0788 
     98 H98        24.5691   25.0069   -3.2528 H         1 UNK         0.0788 
     99 H99        28.3468   25.4875   -1.8532 H         1 UNK         0.2993 
    100 H100       29.7289   28.0776   -2.9635 H         1 UNK         0.0949 
    101 H101       29.0614   28.9252   -0.0937 H         1 UNK         0.0767 
    102 H102       30.5009   29.3997   -0.9942 H         1 UNK         0.0767 
    103 H103       28.9171   29.9257   -1.5274 H         1 UNK         0.0767 
    104 H104       31.0060   26.5299   -2.0504 H         1 UNK         0.3013 
    105 H105       27.6968   28.7211    3.6595 H         1 UNK         0.3121 
    106 H106       29.3498   29.7510    5.8235 H         1 UNK         0.0774 
    107 H107       26.2950   30.0092    5.9902 H         1 UNK         0.0815 
    108 H108       27.3574   29.2331    7.1591 H         1 UNK         0.0815 
    109 H109       27.4327   30.9711    6.9285 H         1 UNK         0.0815 
    110 H110       26.5291   30.7979    3.8408 H         1 UNK         0.2987 
    111 H111       27.4818   33.3861    3.3161 H         1 UNK         0.0949 
    112 H112       25.1002   32.7310    3.1189 H         1 UNK         0.0806 
    113 H113       25.6646   33.4464    1.6184 H         1 UNK         0.0806 
    114 H114       25.4675   31.7065    1.7306 H         1 UNK         0.0806 
    115 H115       29.4065   33.7351    2.4295 H         1 UNK         0.3010 
    116 H116       31.1249   33.9089    1.0694 H         1 UNK         0.0829 
    117 H117       29.3902   32.7968   -1.1975 H         1 UNK         0.0813 
    118 H118       29.4355   34.4896   -0.7037 H         1 UNK         0.0813 
    119 H119       30.8696   33.7265   -1.3672 H         1 UNK         0.0813 
    120 H120       30.5511   31.3088    2.5242 H         1 UNK         0.3038 
    121 H121       32.0285   29.3017    0.9189 H         1 UNK         0.0769 
    122 H122       29.9138   28.7043    2.2083 H         1 UNK         0.0811 
    123 H123       30.7734   29.0903    3.7048 H         1 UNK         0.0811 
    124 H124       31.3031   27.7579    2.6967 H         1 UNK         0.0811 
    125 H125       33.7072   28.0628    2.0617 H         1 UNK         0.3204 
    126 H126       35.7195   29.7184    3.4171 H         1 UNK         0.0748 
    127 H127       35.6392   26.7183    2.7668 H         1 UNK         0.0771 
    128 H128       36.4069   27.9689    1.7886 H         1 UNK         0.0771 
    129 H129       37.0353   27.5922    3.3846 H         1 UNK         0.0771 
    130 H130       33.2369   27.3870    4.2805 H         1 UNK         0.2980 
    131 H131       34.0545   27.0594    7.0570 H         1 UNK         0.0545 
    132 H132       31.7754   29.2025    8.7892 H         1 UNK         0.3459 
    133 H133       32.6613   27.7055    8.9158 H         1 UNK         0.3459 
    134 H134       31.5708   26.1425    5.5073 H         1 UNK         0.0616 
    135 H135       31.8004   25.8320    7.2076 H         1 UNK         0.0616 
    136 H136       33.0502   25.3713    3.6729 H         1 UNK         0.0634 
    137 H137       34.1474   24.0218    3.7514 H         1 UNK         0.0634 
@<TRIPOS>BOND
     1    1    2 1    
     2    1   72 1    
     3    1   73 1    
     4    1   74 1    
     5    2    3 2    
     6    2    4 am   BACKBONE|DICT|INTERRES
     7    4    5 1    
     8    4   75 1    
     9    5    6 1    
    10    5   35 1    
    11    5   76 1    
    12    6    7 1    
    13    6   77 1    
    14    6   78 1    
    15    7    8 1    
    16    8    9 1    
    17    8   79 1    
    18    8   80 1    
    19    9   10 ar   
    20    9   14 ar   
    21   10   11 ar   
    22   10   81 1    
    23   11   12 ar   
    24   11   71 1    
    25   12   13 ar   
    26   12   82 1    
    27   13   14 ar   
    28   13   15 1    
    29   14   83 1    
    30   15   16 1    
    31   15   84 1    
    32   15   85 1    
    33   16   17 1    
    34   17   18 1    
    35   17   86 1    
    36   17   87 1    
    37   18   19 1    
    38   18   37 1    
    39   18   88 1    
    40   19   20 am   BACKBONE|DICT|INTERRES
    41   19   89 1    
    42   20   21 2    
    43   20   22 1    
    44   22   23 1    
    45   22   24 1    
    46   22   90 1    
    47   23   91 1    
    48   23   92 1    
    49   23   93 1    
    50   24   25 am   BACKBONE|DICT|INTERRES
    51   24   94 1    
    52   25   26 2    
    53   25   27 1    
    54   27   28 1    
    55   27   29 1    
    56   27   95 1    
    57   28   96 1    
    58   28   97 1    
    59   28   98 1    
    60   29   30 am   BACKBONE|DICT|INTERRES
    61   29   99 1    
    62   30   31 2    
    63   30   32 1    
    64   32   33 1    
    65   32   34 1    
    66   32  100 1    
    67   33  101 1    
    68   33  102 1    
    69   33  103 1    
    70   34   35 am   BACKBONE|DICT|INTERRES
    71   34  104 1    
    72   35   36 2    
    73   37   38 2    
    74   37   39 am   BACKBONE|DICT|INTERRES
    75   39   40 1    
    76   39  105 1    
    77   40   41 1    
    78   40   42 1    
    79   40  106 1    
    80   41  107 1    
    81   41  108 1    
    82   41  109 1    
    83   42   43 2    
    84   42   44 am   BACKBONE|DICT|INTERRES
    85   44   45 1    
    86   44  110 1    
    87   45   46 1    
    88   45   47 1    
    89   45  111 1    
    90   46  112 1    
    91   46  113 1    
    92   46  114 1    
    93   47   48 2    
    94   47   49 am   BACKBONE|DICT|INTERRES
    95   49   50 1    
    96   49  115 1    
    97   50   51 1    
    98   50   52 1    
    99   50  116 1    
   100   51  117 1    
   101   51  118 1    
   102   51  119 1    
   103   52   53 2    
   104   52   54 am   BACKBONE|DICT|INTERRES
   105   54   55 1    
   106   54  120 1    
   107   55   56 1    
   108   55   57 1    
   109   55  121 1    
   110   56  122 1    
   111   56  123 1    
   112   56  124 1    
   113   57   58 2    
   114   57   59 am   BACKBONE|DICT|INTERRES
   115   59   60 1    
   116   59  125 1    
   117   60   61 1    
   118   60   62 1    
   119   60  126 1    
   120   61  127 1    
   121   61  128 1    
   122   61  129 1    
   123   62   63 2    
   124   62   64 am   BACKBONE|DICT|INTERRES
   125   64   65 1    
   126   64  130 1    
   127   65   66 1    
   128   65   69 1    
   129   65  131 1    
   130   66   67 am   BACKBONE|DICT|INTERRES
   131   66   68 2    
   132   67  132 1    
   133   67  133 1    
   134   69   70 1    
   135   69  134 1    
   136   69  135 1    
   137   70   71 1    
   138   71  136 1    
   139   71  137 1    
@<TRIPOS>SUBSTRUCTURE
     1 UNK         1 GROUP             0       ****    0 ROOT    
