@<TRIPOS>MOLECULE
3R136
137   139    1
SMALL
USER_CHARGES


@<TRIPOS>ATOM
      1 CA         27.1013   21.8664    2.4146 C.3       0 UNK        -0.1979 
      2 C          27.8012   21.6092    1.0883 C.2       0 UNK         0.4864 
      3 O          27.2074   21.0141    0.1882 O.2       0 UNK        -0.5359 
      4 N          29.0575   22.0583    0.9573 N.am      1 UNK        -0.4318 
      5 CA         29.8507   21.9917   -0.2792 C.3       1 UNK         0.0824 
      6 C6         31.3653   22.1805   -0.0032 C.3       12 UNK        -0.0944 
      7 S7         31.7742   23.7773    0.7867 S.3       12 UNK        -0.2672 
      8 C8         32.0284   23.2970    2.5242 C.3       12 UNK         0.0333 
      9 C9         31.5076   24.3826    3.4522 C.ar      12 UNK        -0.0807 
     10 C10        32.2029   25.5888    3.5720 C.ar      12 UNK        -0.0894 
     11 C11        31.7184   26.6185    4.3904 C.ar      12 UNK        -0.0804 
     12 C12        30.5340   26.4105    5.1040 C.ar      12 UNK        -0.0824 
     13 C13        29.8267   25.2090    4.9926 C.ar      12 UNK        -0.0762 
     14 C14        30.3234   24.1948    4.1706 C.ar      12 UNK        -0.0782 
     15 C15        28.5276   25.0042    5.7622 C.3       12 UNK         0.0230 
     16 S16        27.0545   25.1180    4.6910 S.3       12 UNK        -0.2608 
     17 C17        27.0927   26.8678    4.1710 C.3       12 UNK        -0.0989 
     18 CA         26.8996   27.0148    2.6346 C.3       5 UNK         0.0716 
     19 N          25.5552   26.6395    2.1792 N.am      5 UNK        -0.4135 
     20 C          24.4043   27.2607    2.4866 C.2       4 UNK         0.5031 
     21 O          24.3326   28.2215    3.2550 O.2       4 UNK        -0.5229 
     22 CA         23.1149   26.7331    1.8153 C.3       4 UNK         0.0329 
     23 CB         22.0380   27.8299    1.6683 C.3       4 UNK        -0.2001 
     24 N          23.3386   26.0634    0.5261 N.am      4 UNK        -0.4303 
     25 C          23.9346   26.5843   -0.5557 C.2       3 UNK         0.5044 
     26 O          24.3709   27.7343   -0.6240 O.2       3 UNK        -0.5152 
     27 CA         24.1529   25.6272   -1.7381 C.3       3 UNK         0.0319 
     28 CB         23.4032   26.1214   -2.9859 C.3       3 UNK        -0.2001 
     29 N          25.5765   25.4732   -2.0539 N.am      3 UNK        -0.4354 
     30 C          26.5229   25.0802   -1.1902 C.2       2 UNK         0.4964 
     31 O          26.3091   24.8017   -0.0046 O.2       2 UNK        -0.5047 
     32 CA         27.9547   25.0172   -1.7317 C.3       2 UNK         0.0288 
     33 CB         28.6345   26.3908   -1.6077 C.3       2 UNK        -0.2113 
     34 N          28.6857   24.0522   -0.9221 N.am      2 UNK        -0.4145 
     35 C          29.3363   22.9692   -1.3622 C.2       1 UNK         0.5006 
     36 O          29.5232   22.7135   -2.5534 O.2       1 UNK        -0.5103 
     37 C          27.3522   28.3915    2.0901 C.2       5 UNK         0.5055 
     38 O          28.1855   29.0507    2.7167 O.2       5 UNK        -0.5220 
     39 N          26.8522   28.7984    0.9106 N.am      6 UNK        -0.4450 
     40 CA         27.2418   30.0269    0.2046 C.3       6 UNK         0.0367 
     41 CB         26.1281   30.4161   -0.7844 C.3       6 UNK        -0.1929 
     42 C          28.6225   29.9076   -0.4789 C.2       6 UNK         0.5070 
     43 O          28.7422   30.1370   -1.6838 O.2       6 UNK        -0.5237 
     44 N          29.6349   29.5296    0.3075 N.am      7 UNK        -0.4739 
     45 CA         31.0385   29.4125   -0.0801 C.3       7 UNK         0.0276 
     46 CB         31.5938   28.0933    0.4979 C.3       7 UNK        -0.1927 
     47 C          31.7972   30.6754    0.3760 C.2       7 UNK         0.5013 
     48 O          31.2855   31.7840    0.2087 O.2       7 UNK        -0.5193 
     49 N          32.9905   30.5058    0.9618 N.am      8 UNK        -0.4253 
     50 CA         33.8443   31.5846    1.4776 C.3       8 UNK         0.0242 
     51 CB         35.3153   31.1350    1.4034 C.3       8 UNK        -0.2000 
     52 C          33.4678   32.0542    2.9001 C.2       8 UNK         0.4948 
     53 O          34.2510   32.7787    3.5179 O.2       8 UNK        -0.5275 
     54 N          32.3001   31.6289    3.4061 N.am      9 UNK        -0.4246 
     55 CA         31.6835   31.9245    4.7076 C.3       9 UNK         0.0261 
     56 CB         31.3868   33.4289    4.8674 C.3       9 UNK        -0.1959 
     57 C          32.4562   31.3707    5.9174 C.2       9 UNK         0.5033 
     58 O          31.8824   30.6095    6.6968 O.2       9 UNK        -0.5390 
     59 N          33.7307   31.7526    6.0528 N.am      10 UNK        -0.4215 
     60 CA         34.6486   31.2482    7.0744 C.3       10 UNK         0.0240 
     61 CB         35.7727   32.2703    7.3147 C.3       10 UNK        -0.1982 
     62 C          35.2167   29.8793    6.6732 C.2       10 UNK         0.4970 
     63 O          35.1473   28.9389    7.4646 O.2       10 UNK        -0.4916 
     64 N          35.7496   29.8031    5.4451 N.am      11 UNK        -0.4279 
     65 CA         36.2968   28.5938    4.8007 C.3       11 UNK         0.1003 
     66 C          37.5474   27.9766    5.5001 C.2       11 UNK         0.5709 
     67 N          38.2686   28.7182    6.3328 N.am      11 UNK        -0.7358 
     68 O          37.8953   26.8222    5.2616 O.2       11 UNK        -0.4999 
     69 C69        35.2021   27.5384    4.4680 C.3       12 UNK        -0.0954 
     70 S70        33.8612   28.2467    3.4545 S.3       12 UNK        -0.2268 
     71 C71        32.4046   27.9802    4.5211 C.3       12 UNK         0.0203 
     72 H72        27.7696   22.3069    3.1532 H         1 UNK         0.0888 
     73 H73        26.2652   22.5501    2.2673 H         1 UNK         0.0888 
     74 H74        26.7131   20.9340    2.8236 H         1 UNK         0.0888 
     75 H75        29.4990   22.5427    1.7242 H         1 UNK         0.3017 
     76 H76        29.7225   20.9885   -0.6920 H         1 UNK         0.0873 
     77 H77        31.9294   22.1095   -0.9353 H         1 UNK         0.0745 
     78 H78        31.7340   21.3613    0.6158 H         1 UNK         0.0745 
     79 H79        31.5328   22.3487    2.7365 H         1 UNK         0.0705 
     80 H80        33.0926   23.1342    2.7010 H         1 UNK         0.0705 
     81 H81        33.1100   25.7158    2.9996 H         1 UNK         0.1334 
     82 H82        30.1524   27.1991    5.7387 H         1 UNK         0.1417 
     83 H83        29.7800   23.2644    4.0892 H         1 UNK         0.1562 
     84 H84        28.4384   25.7294    6.5726 H         1 UNK         0.0748 
     85 H85        28.5413   24.0217    6.2362 H         1 UNK         0.0748 
     86 H86        28.0405   27.3008    4.4867 H         1 UNK         0.0940 
     87 H87        26.3300   27.4187    4.7220 H         1 UNK         0.0940 
     88 H88        27.5769   26.3057    2.1554 H         1 UNK         0.0703 
     89 H89        25.5313   25.8709    1.5159 H         1 UNK         0.3081 
     90 H90        22.7202   25.9713    2.4892 H         1 UNK         0.0719 
     91 H91        22.3904   28.6615    1.0569 H         1 UNK         0.0809 
     92 H92        21.1307   27.4371    1.2095 H         1 UNK         0.0809 
     93 H93        21.7559   28.2376    2.6398 H         1 UNK         0.0809 
     94 H94        23.0549   25.0936    0.4882 H         1 UNK         0.2990 
     95 H95        23.7661   24.6404   -1.4751 H         1 UNK         0.0690 
     96 H96        23.5020   25.4197   -3.8143 H         1 UNK         0.0788 
     97 H97        23.7728   27.0919   -3.3205 H         1 UNK         0.0788 
     98 H98        22.3373   26.2322   -2.7818 H         1 UNK         0.0788 
     99 H99        25.8516   25.7178   -2.9941 H         1 UNK         0.2993 
    100 H100       27.9300   24.7062   -2.7784 H         1 UNK         0.0949 
    101 H101       28.1109   27.1460   -2.1954 H         1 UNK         0.0767 
    102 H102       28.6548   26.7378   -0.5739 H         1 UNK         0.0767 
    103 H103       29.6633   26.3565   -1.9668 H         1 UNK         0.0767 
    104 H104       28.5151   24.1260    0.0710 H         1 UNK         0.3013 
    105 H105       26.1505   28.2283    0.4502 H         1 UNK         0.3121 
    106 H106       27.3212   30.8325    0.9378 H         1 UNK         0.0774 
    107 H107       25.1667   30.5194   -0.2808 H         1 UNK         0.0815 
    108 H108       26.3466   31.3707   -1.2645 H         1 UNK         0.0815 
    109 H109       26.0138   29.6723   -1.5740 H         1 UNK         0.0815 
    110 H110       29.4175   29.3879    1.2904 H         1 UNK         0.2987 
    111 H111       31.1240   29.3675   -1.1679 H         1 UNK         0.0949 
    112 H112       32.6323   27.9268    0.2094 H         1 UNK         0.0806 
    113 H113       31.5349   28.0697    1.5862 H         1 UNK         0.0806 
    114 H114       31.0303   27.2365    0.1286 H         1 UNK         0.0806 
    115 H115       33.3298   29.5637    1.0998 H         1 UNK         0.3010 
    116 H116       33.7344   32.4554    0.8278 H         1 UNK         0.0829 
    117 H117       35.5906   30.8472    0.3887 H         1 UNK         0.0813 
    118 H118       35.9894   31.9400    1.6996 H         1 UNK         0.0813 
    119 H119       35.5150   30.2871    2.0575 H         1 UNK         0.0813 
    120 H120       31.7567   31.0209    2.8113 H         1 UNK         0.3038 
    121 H121       30.7216   31.4087    4.6942 H         1 UNK         0.0769 
    122 H122       32.2957   34.0308    4.8786 H         1 UNK         0.0811 
    123 H123       30.8592   33.6233    5.8022 H         1 UNK         0.0811 
    124 H124       30.7551   33.7943    4.0577 H         1 UNK         0.0811 
    125 H125       34.1122   32.3378    5.3115 H         1 UNK         0.3204 
    126 H126       34.1015   31.1240    8.0116 H         1 UNK         0.0748 
    127 H127       35.3714   33.2167    7.6777 H         1 UNK         0.0771 
    128 H128       36.4751   31.9084    8.0669 H         1 UNK         0.0771 
    129 H129       36.3412   32.4772    6.4071 H         1 UNK         0.0771 
    130 H130       35.7687   30.6385    4.8800 H         1 UNK         0.2980 
    131 H131       36.6884   28.9437    3.8453 H         1 UNK         0.0545 
    132 H132       39.0818   28.3166    6.7721 H         1 UNK         0.3459 
    133 H133       38.0049   29.6697    6.5304 H         1 UNK         0.3459 
    134 H134       35.6273   26.7091    3.9004 H         1 UNK         0.0616 
    135 H135       34.7955   27.1023    5.3816 H         1 UNK         0.0616 
    136 H136       32.6818   28.1500    5.5623 H         1 UNK         0.0634 
    137 H137       31.6738   28.7500    4.2703 H         1 UNK         0.0634 
@<TRIPOS>BOND
     1    1    2 1    
     2    1   72 1    
     3    1   73 1    
     4    1   74 1    
     5    2    3 2    
     6    2    4 am   BACKBONE|DICT|INTERRES
     7    4    5 1    
     8    4   75 1    
     9    5    6 1    
    10    5   35 1    
    11    5   76 1    
    12    6    7 1    
    13    6   77 1    
    14    6   78 1    
    15    7    8 1    
    16    8    9 1    
    17    8   79 1    
    18    8   80 1    
    19    9   10 ar   
    20    9   14 ar   
    21   10   11 ar   
    22   10   81 1    
    23   11   12 ar   
    24   11   71 1    
    25   12   13 ar   
    26   12   82 1    
    27   13   14 ar   
    28   13   15 1    
    29   14   83 1    
    30   15   16 1    
    31   15   84 1    
    32   15   85 1    
    33   16   17 1    
    34   17   18 1    
    35   17   86 1    
    36   17   87 1    
    37   18   19 1    
    38   18   37 1    
    39   18   88 1    
    40   19   20 am   BACKBONE|DICT|INTERRES
    41   19   89 1    
    42   20   21 2    
    43   20   22 1    
    44   22   23 1    
    45   22   24 1    
    46   22   90 1    
    47   23   91 1    
    48   23   92 1    
    49   23   93 1    
    50   24   25 am   BACKBONE|DICT|INTERRES
    51   24   94 1    
    52   25   26 2    
    53   25   27 1    
    54   27   28 1    
    55   27   29 1    
    56   27   95 1    
    57   28   96 1    
    58   28   97 1    
    59   28   98 1    
    60   29   30 am   BACKBONE|DICT|INTERRES
    61   29   99 1    
    62   30   31 2    
    63   30   32 1    
    64   32   33 1    
    65   32   34 1    
    66   32  100 1    
    67   33  101 1    
    68   33  102 1    
    69   33  103 1    
    70   34   35 am   BACKBONE|DICT|INTERRES
    71   34  104 1    
    72   35   36 2    
    73   37   38 2    
    74   37   39 am   BACKBONE|DICT|INTERRES
    75   39   40 1    
    76   39  105 1    
    77   40   41 1    
    78   40   42 1    
    79   40  106 1    
    80   41  107 1    
    81   41  108 1    
    82   41  109 1    
    83   42   43 2    
    84   42   44 am   BACKBONE|DICT|INTERRES
    85   44   45 1    
    86   44  110 1    
    87   45   46 1    
    88   45   47 1    
    89   45  111 1    
    90   46  112 1    
    91   46  113 1    
    92   46  114 1    
    93   47   48 2    
    94   47   49 am   BACKBONE|DICT|INTERRES
    95   49   50 1    
    96   49  115 1    
    97   50   51 1    
    98   50   52 1    
    99   50  116 1    
   100   51  117 1    
   101   51  118 1    
   102   51  119 1    
   103   52   53 2    
   104   52   54 am   BACKBONE|DICT|INTERRES
   105   54   55 1    
   106   54  120 1    
   107   55   56 1    
   108   55   57 1    
   109   55  121 1    
   110   56  122 1    
   111   56  123 1    
   112   56  124 1    
   113   57   58 2    
   114   57   59 am   BACKBONE|DICT|INTERRES
   115   59   60 1    
   116   59  125 1    
   117   60   61 1    
   118   60   62 1    
   119   60  126 1    
   120   61  127 1    
   121   61  128 1    
   122   61  129 1    
   123   62   63 2    
   124   62   64 am   BACKBONE|DICT|INTERRES
   125   64   65 1    
   126   64  130 1    
   127   65   66 1    
   128   65   69 1    
   129   65  131 1    
   130   66   67 am   BACKBONE|DICT|INTERRES
   131   66   68 2    
   132   67  132 1    
   133   67  133 1    
   134   69   70 1    
   135   69  134 1    
   136   69  135 1    
   137   70   71 1    
   138   71  136 1    
   139   71  137 1    
@<TRIPOS>SUBSTRUCTURE
     1 UNK         1 GROUP             0       ****    0 ROOT    
