@<TRIPOS>MOLECULE
3R136
137   139    1
SMALL
USER_CHARGES


@<TRIPOS>ATOM
      1 CA         29.9810   21.9957   -4.1481 C.3       0 UNK        -0.1979 
      2 C          29.7323   22.7657   -2.8601 C.2       0 UNK         0.4864 
      3 O          29.8545   23.9909   -2.8445 O.2       0 UNK        -0.5359 
      4 N          29.3622   22.0629   -1.7819 N.am      1 UNK        -0.4318 
      5 CA         29.1305   22.5905   -0.4276 C.3       1 UNK         0.0824 
      6 C6         29.2709   21.4707    0.6409 C.3       12 UNK        -0.0944 
      7 S7         30.8691   20.5920    0.5399 S.3       12 UNK        -0.2672 
      8 C8         31.5513   20.8362    2.2152 C.3       12 UNK         0.0333 
      9 C9         31.8190   22.2917    2.5955 C.ar      12 UNK        -0.0807 
     10 C10        31.6827   22.6782    3.9328 C.ar      12 UNK        -0.0894 
     11 C11        31.9517   23.9913    4.3272 C.ar      12 UNK        -0.0804 
     12 C12        32.3522   24.9277    3.3706 C.ar      12 UNK        -0.0824 
     13 C13        32.4878   24.5610    2.0299 C.ar      12 UNK        -0.0762 
     14 C14        32.2328   23.2400    1.6510 C.ar      12 UNK        -0.0782 
     15 C15        32.9323   25.5793    0.9905 C.3       12 UNK         0.0230 
     16 S16        31.5160   26.3402    0.1349 S.3       12 UNK        -0.2608 
     17 C17        31.1323   27.7535    1.2259 C.3       12 UNK        -0.0989 
     18 CA         29.6046   27.9867    1.3855 C.3       5 UNK         0.0716 
     19 N          28.8946   26.8284    1.9334 N.am      5 UNK        -0.4135 
     20 C          29.0344   26.2903    3.1547 C.2       4 UNK         0.5031 
     21 O          29.8103   26.7242    4.0074 O.2       4 UNK        -0.5229 
     22 CA         28.1084   25.0986    3.4867 C.3       4 UNK         0.0329 
     23 CB         27.9225   24.8944    5.0046 C.3       4 UNK        -0.2001 
     24 N          26.8029   25.1770    2.8124 N.am      4 UNK        -0.4303 
     25 C          25.9246   26.1928    2.8835 C.2       3 UNK         0.5044 
     26 O          26.0833   27.1769    3.6058 O.2       3 UNK        -0.5152 
     27 CA         24.7112   26.1367    1.9299 C.3       3 UNK         0.0319 
     28 CB         24.0682   27.5238    1.7120 C.3       3 UNK        -0.2001 
     29 N          25.0221   25.5102    0.6368 N.am      3 UNK        -0.4354 
     30 C          25.9930   25.8680   -0.2177 C.2       2 UNK         0.4964 
     31 O          26.7505   26.8257   -0.0502 O.2       2 UNK        -0.5047 
     32 CA         26.2106   24.9432   -1.4234 C.3       2 UNK         0.0288 
     33 CB         26.2415   25.7405   -2.7381 C.3       2 UNK        -0.2113 
     34 N          27.4559   24.1830   -1.2944 N.am      2 UNK        -0.4145 
     35 C          27.7759   23.3331   -0.3076 C.2       1 UNK         0.5006 
     36 O          27.0383   23.1144    0.6574 O.2       1 UNK        -0.5103 
     37 C          29.2852   29.3058    2.1282 C.2       5 UNK         0.5055 
     38 O          30.0352   30.2719    1.9728 O.2       5 UNK        -0.5220 
     39 N          28.1958   29.3576    2.9155 N.am      6 UNK        -0.4450 
     40 CA         27.8245   30.5037    3.7588 C.3       6 UNK         0.0367 
     41 CB         26.6840   30.0992    4.7047 C.3       6 UNK        -0.1929 
     42 C          27.4505   31.7773    2.9795 C.2       6 UNK         0.5070 
     43 O          27.4868   32.8663    3.5518 O.2       6 UNK        -0.5237 
     44 N          27.1264   31.6293    1.6880 N.am      7 UNK        -0.4739 
     45 CA         26.9499   32.7319    0.7392 C.3       7 UNK         0.0276 
     46 CB         26.2126   32.2017   -0.5019 C.3       7 UNK        -0.1927 
     47 C          28.2787   33.4041    0.3330 C.2       7 UNK         0.5013 
     48 O          28.2436   34.4956   -0.2372 O.2       7 UNK        -0.5193 
     49 N          29.4108   32.7458    0.6137 N.am      8 UNK        -0.4253 
     50 CA         30.7673   33.2085    0.3490 C.3       8 UNK         0.0242 
     51 CB         31.4009   32.3011   -0.7276 C.3       8 UNK        -0.2000 
     52 C          31.5362   33.2496    1.6820 C.2       8 UNK         0.4948 
     53 O          31.0955   33.9300    2.6097 O.2       8 UNK        -0.5275 
     54 N          32.6755   32.5501    1.7576 N.am      9 UNK        -0.4246 
     55 CA         33.6032   32.5665    2.8924 C.3       9 UNK         0.0261 
     56 CB         35.0135   32.2424    2.3678 C.3       9 UNK        -0.1959 
     57 C          33.2320   31.6148    4.0467 C.2       9 UNK         0.5033 
     58 O          33.9309   31.6315    5.0627 O.2       9 UNK        -0.5390 
     59 N          32.1867   30.7882    3.8825 N.am      10 UNK        -0.4215 
     60 CA         31.7971   29.6939    4.7827 C.3       10 UNK         0.0240 
     61 CB         31.3097   30.2363    6.1467 C.3       10 UNK        -0.1982 
     62 C          32.9011   28.6211    4.8767 C.2       10 UNK         0.4970 
     63 O          33.6053   28.3891    3.8913 O.2       10 UNK        -0.4916 
     64 N          33.0259   27.9767    6.0416 N.am      11 UNK        -0.4279 
     65 CA         34.0654   26.9795    6.3426 C.3       11 UNK         0.1003 
     66 C          35.4479   27.5883    6.7281 C.2       11 UNK         0.5709 
     67 N          35.6195   28.9056    6.7521 N.am      11 UNK        -0.7358 
     68 O          36.3914   26.8495    6.9998 O.2       11 UNK        -0.4999 
     69 C69        33.5476   25.9345    7.3783 C.3       12 UNK        -0.0954 
     70 S70        33.3994   24.2664    6.6591 S.3       12 UNK        -0.2268 
     71 C71        31.8085   24.3996    5.7849 C.3       12 UNK         0.0203 
     72 H72        31.0030   22.1581   -4.4896 H         1 UNK         0.0888 
     73 H73        29.8338   20.9237   -4.0172 H         1 UNK         0.0888 
     74 H74        29.3019   22.3393   -4.9279 H         1 UNK         0.0888 
     75 H75        29.2651   21.0608   -1.8652 H         1 UNK         0.3017 
     76 H76        29.9002   23.3383   -0.2241 H         1 UNK         0.0873 
     77 H77        28.4753   20.7318    0.5279 H         1 UNK         0.0745 
     78 H78        29.1557   21.8861    1.6440 H         1 UNK         0.0745 
     79 H79        30.8662   20.3782    2.9306 H         1 UNK         0.0705 
     80 H80        32.4889   20.2841    2.2899 H         1 UNK         0.0705 
     81 H81        31.3778   21.9522    4.6743 H         1 UNK         0.1334 
     82 H82        32.5515   25.9453    3.6723 H         1 UNK         0.1417 
     83 H83        32.3581   22.9548    0.6155 H         1 UNK         0.1562 
     84 H84        33.5631   25.0884    0.2479 H         1 UNK         0.0748 
     85 H85        33.5534   26.3523    1.4469 H         1 UNK         0.0748 
     86 H86        31.6176   28.6298    0.7923 H         1 UNK         0.0940 
     87 H87        31.5955   27.6071    2.2014 H         1 UNK         0.0940 
     88 H88        29.1946   28.1280    0.3844 H         1 UNK         0.0703 
     89 H89        28.1731   26.4625    1.3214 H         1 UNK         0.3081 
     90 H90        28.6075   24.2126    3.0909 H         1 UNK         0.0719 
     91 H91        28.8783   24.7079    5.4938 H         1 UNK         0.0809 
     92 H92        27.4817   25.7716    5.4792 H         1 UNK         0.0809 
     93 H93        27.2805   24.0391    5.2145 H         1 UNK         0.0809 
     94 H94        26.6116   24.4271    2.1535 H         1 UNK         0.2990 
     95 H95        23.9723   25.4984    2.4162 H         1 UNK         0.0690 
     96 H96        23.2048   27.4615    1.0498 H         1 UNK         0.0788 
     97 H97        24.7737   28.2331    1.2775 H         1 UNK         0.0788 
     98 H98        23.7209   27.9480    2.6550 H         1 UNK         0.0788 
     99 H99        24.4912   24.6760    0.4251 H         1 UNK         0.2993 
    100 H100       25.3871   24.2282   -1.4781 H         1 UNK         0.0949 
    101 H101       26.3292   25.0796   -3.6008 H         1 UNK         0.0767 
    102 H102       25.3262   26.3203   -2.8650 H         1 UNK         0.0767 
    103 H103       27.0783   26.4401   -2.7665 H         1 UNK         0.0767 
    104 H104       28.1591   24.3268   -2.0145 H         1 UNK         0.3013 
    105 H105       27.6167   28.5295    3.0109 H         1 UNK         0.3121 
    106 H106       28.6952   30.7523    4.3686 H         1 UNK         0.0774 
    107 H107       26.4288   30.9149    5.3825 H         1 UNK         0.0815 
    108 H108       25.7794   29.8372    4.1544 H         1 UNK         0.0815 
    109 H109       26.9630   29.2433    5.3197 H         1 UNK         0.0815 
    110 H110       27.1009   30.6931    1.3106 H         1 UNK         0.2987 
    111 H111       26.3287   33.4977    1.2092 H         1 UNK         0.0949 
    112 H112       26.7882   31.4303   -1.0152 H         1 UNK         0.0806 
    113 H113       25.2429   31.7791   -0.2380 H         1 UNK         0.0806 
    114 H114       26.0298   33.0030   -1.2193 H         1 UNK         0.0806 
    115 H115       29.3541   31.8762    1.1361 H         1 UNK         0.3010 
    116 H116       30.7543   34.2319   -0.0316 H         1 UNK         0.0829 
    117 H117       30.8184   32.3305   -1.6488 H         1 UNK         0.0813 
    118 H118       32.4094   32.6284   -0.9841 H         1 UNK         0.0813 
    119 H119       31.4505   31.2589   -0.4084 H         1 UNK         0.0813 
    120 H120       32.9524   32.0008    0.9567 H         1 UNK         0.3038 
    121 H121       33.6242   33.5757    3.3094 H         1 UNK         0.0769 
    122 H122       35.7538   32.3042    3.1668 H         1 UNK         0.0811 
    123 H123       35.3214   32.9440    1.5922 H         1 UNK         0.0811 
    124 H124       35.0674   31.2348    1.9534 H         1 UNK         0.0811 
    125 H125       31.6608   30.8359    3.0152 H         1 UNK         0.3204 
    126 H126       30.9499   29.1936    4.3198 H         1 UNK         0.0748 
    127 H127       30.8078   29.4604    6.7258 H         1 UNK         0.0771 
    128 H128       32.1285   30.6276    6.7516 H         1 UNK         0.0771 
    129 H129       30.5885   31.0424    6.0117 H         1 UNK         0.0771 
    130 H130       32.4230   28.2375    6.8073 H         1 UNK         0.2980 
    131 H131       34.2765   26.4546    5.4092 H         1 UNK         0.0545 
    132 H132       36.5227   29.2781    6.9988 H         1 UNK         0.3459 
    133 H133       34.8728   29.5307    6.4893 H         1 UNK         0.3459 
    134 H134       34.2089   25.8525    8.2429 H         1 UNK         0.0616 
    135 H135       32.5808   26.2206    7.7962 H         1 UNK         0.0616 
    136 H136       31.4226   25.4184    5.8408 H         1 UNK         0.0634 
    137 H137       31.0752   23.7682    6.2883 H         1 UNK         0.0634 
@<TRIPOS>BOND
     1    1    2 1    
     2    1   72 1    
     3    1   73 1    
     4    1   74 1    
     5    2    3 2    
     6    2    4 am   BACKBONE|DICT|INTERRES
     7    4    5 1    
     8    4   75 1    
     9    5    6 1    
    10    5   35 1    
    11    5   76 1    
    12    6    7 1    
    13    6   77 1    
    14    6   78 1    
    15    7    8 1    
    16    8    9 1    
    17    8   79 1    
    18    8   80 1    
    19    9   10 ar   
    20    9   14 ar   
    21   10   11 ar   
    22   10   81 1    
    23   11   12 ar   
    24   11   71 1    
    25   12   13 ar   
    26   12   82 1    
    27   13   14 ar   
    28   13   15 1    
    29   14   83 1    
    30   15   16 1    
    31   15   84 1    
    32   15   85 1    
    33   16   17 1    
    34   17   18 1    
    35   17   86 1    
    36   17   87 1    
    37   18   19 1    
    38   18   37 1    
    39   18   88 1    
    40   19   20 am   BACKBONE|DICT|INTERRES
    41   19   89 1    
    42   20   21 2    
    43   20   22 1    
    44   22   23 1    
    45   22   24 1    
    46   22   90 1    
    47   23   91 1    
    48   23   92 1    
    49   23   93 1    
    50   24   25 am   BACKBONE|DICT|INTERRES
    51   24   94 1    
    52   25   26 2    
    53   25   27 1    
    54   27   28 1    
    55   27   29 1    
    56   27   95 1    
    57   28   96 1    
    58   28   97 1    
    59   28   98 1    
    60   29   30 am   BACKBONE|DICT|INTERRES
    61   29   99 1    
    62   30   31 2    
    63   30   32 1    
    64   32   33 1    
    65   32   34 1    
    66   32  100 1    
    67   33  101 1    
    68   33  102 1    
    69   33  103 1    
    70   34   35 am   BACKBONE|DICT|INTERRES
    71   34  104 1    
    72   35   36 2    
    73   37   38 2    
    74   37   39 am   BACKBONE|DICT|INTERRES
    75   39   40 1    
    76   39  105 1    
    77   40   41 1    
    78   40   42 1    
    79   40  106 1    
    80   41  107 1    
    81   41  108 1    
    82   41  109 1    
    83   42   43 2    
    84   42   44 am   BACKBONE|DICT|INTERRES
    85   44   45 1    
    86   44  110 1    
    87   45   46 1    
    88   45   47 1    
    89   45  111 1    
    90   46  112 1    
    91   46  113 1    
    92   46  114 1    
    93   47   48 2    
    94   47   49 am   BACKBONE|DICT|INTERRES
    95   49   50 1    
    96   49  115 1    
    97   50   51 1    
    98   50   52 1    
    99   50  116 1    
   100   51  117 1    
   101   51  118 1    
   102   51  119 1    
   103   52   53 2    
   104   52   54 am   BACKBONE|DICT|INTERRES
   105   54   55 1    
   106   54  120 1    
   107   55   56 1    
   108   55   57 1    
   109   55  121 1    
   110   56  122 1    
   111   56  123 1    
   112   56  124 1    
   113   57   58 2    
   114   57   59 am   BACKBONE|DICT|INTERRES
   115   59   60 1    
   116   59  125 1    
   117   60   61 1    
   118   60   62 1    
   119   60  126 1    
   120   61  127 1    
   121   61  128 1    
   122   61  129 1    
   123   62   63 2    
   124   62   64 am   BACKBONE|DICT|INTERRES
   125   64   65 1    
   126   64  130 1    
   127   65   66 1    
   128   65   69 1    
   129   65  131 1    
   130   66   67 am   BACKBONE|DICT|INTERRES
   131   66   68 2    
   132   67  132 1    
   133   67  133 1    
   134   69   70 1    
   135   69  134 1    
   136   69  135 1    
   137   70   71 1    
   138   71  136 1    
   139   71  137 1    
@<TRIPOS>SUBSTRUCTURE
     1 UNK         1 GROUP             0       ****    0 ROOT    
