@<TRIPOS>MOLECULE
3R136
137   139    1
SMALL
USER_CHARGES


@<TRIPOS>ATOM
      1 CA         28.1573   23.0052   -2.4418 C.3       0 UNK        -0.1979 
      2 C          28.3869   22.5379   -1.0125 C.2       0 UNK         0.4864 
      3 O          27.6306   21.7031   -0.5156 O.2       0 UNK        -0.5359 
      4 N          29.4032   23.0946   -0.3395 N.am      1 UNK        -0.4318 
      5 CA         29.8799   22.7972    1.0256 C.3       1 UNK         0.0824 
      6 C6         30.3530   21.3321    1.2426 C.3       12 UNK        -0.0944 
      7 S7         31.4853   20.7149   -0.0536 S.3       12 UNK        -0.2672 
      8 C8         33.1244   21.2262    0.5676 C.3       12 UNK         0.0333 
      9 C9         33.3031   22.7406    0.6059 C.ar      12 UNK        -0.0807 
     10 C10        33.7845   23.3600    1.7642 C.ar      12 UNK        -0.0894 
     11 C11        33.9337   24.7496    1.8186 C.ar      12 UNK        -0.0804 
     12 C12        33.5858   25.5223    0.7083 C.ar      12 UNK        -0.0824 
     13 C13        33.0752   24.9189   -0.4455 C.ar      12 UNK        -0.0762 
     14 C14        32.9724   23.5268   -0.5042 C.ar      12 UNK        -0.0782 
     15 C15        32.5876   25.7697   -1.6107 C.3       12 UNK         0.0230 
     16 S16        30.7639   25.8760   -1.6376 S.3       12 UNK        -0.2608 
     17 C17        30.4203   26.6744   -0.0351 C.3       12 UNK        -0.0989 
     18 CA         29.4830   27.8976   -0.1575 C.3       5 UNK         0.0716 
     19 N          28.0870   27.5214   -0.3710 N.am      5 UNK        -0.4135 
     20 C          27.2408   28.1743   -1.1778 C.2       4 UNK         0.5031 
     21 O          27.5770   29.0714   -1.9521 O.2       4 UNK        -0.5229 
     22 CA         25.7527   27.7805   -1.0946 C.3       4 UNK         0.0329 
     23 CB         25.4387   26.6678   -2.1081 C.3       4 UNK        -0.2001 
     24 N          25.3185   27.3526    0.2398 N.am      4 UNK        -0.4303 
     25 C          25.4091   28.0817    1.3627 C.2       3 UNK         0.5044 
     26 O          25.8396   29.2337    1.4049 O.2       3 UNK        -0.5152 
     27 CA         25.0093   27.3886    2.6781 C.3       3 UNK         0.0319 
     28 CB         23.5142   27.6068    2.9584 C.3       3 UNK        -0.2001 
     29 N          25.3130   25.9509    2.7582 N.am      3 UNK        -0.4354 
     30 C          26.4753   25.3513    2.4556 C.2       2 UNK         0.4964 
     31 O          27.4466   25.9539    1.9889 O.2       2 UNK        -0.5047 
     32 CA         26.5518   23.8281    2.6943 C.3       2 UNK         0.0288 
     33 CB         25.2263   23.1074    2.3761 C.3       2 UNK        -0.2113 
     34 N          27.6093   23.2247    1.8850 N.am      2 UNK        -0.4145 
     35 C          28.9208   23.2493    2.1491 C.2       1 UNK         0.5006 
     36 O          29.3903   23.6400    3.2190 O.2       1 UNK        -0.5103 
     37 C          29.5896   28.7468    1.1171 C.2       5 UNK         0.5055 
     38 O          30.1732   29.8300    1.0721 O.2       5 UNK        -0.5220 
     39 N          29.0697   28.2238    2.2383 N.am      6 UNK        -0.4450 
     40 CA         29.3100   28.7187    3.5964 C.3       6 UNK         0.0367 
     41 CB         28.6453   27.7847    4.6173 C.3       6 UNK        -0.1929 
     42 C          28.9083   30.1804    3.8436 C.2       6 UNK         0.5070 
     43 O          29.5535   30.8327    4.6623 O.2       6 UNK        -0.5237 
     44 N          27.9131   30.6964    3.1074 N.am      7 UNK        -0.4739 
     45 CA         27.5205   32.1106    3.1378 C.3       7 UNK         0.0276 
     46 CB         26.2420   32.3043    2.3077 C.3       7 UNK        -0.1927 
     47 C          28.6220   33.0794    2.6607 C.2       7 UNK         0.5013 
     48 O          28.6098   34.2405    3.0721 O.2       7 UNK        -0.5193 
     49 N          29.5460   32.5941    1.8197 N.am      8 UNK        -0.4253 
     50 CA         30.7116   33.3350    1.3371 C.3       8 UNK         0.0242 
     51 CB         30.7857   33.2201   -0.1949 C.3       8 UNK        -0.2000 
     52 C          32.0077   32.8145    1.9767 C.2       8 UNK         0.4948 
     53 O          32.8510   33.6212    2.3695 O.2       8 UNK        -0.5275 
     54 N          32.1559   31.4843    2.0557 N.am      9 UNK        -0.4246 
     55 CA         33.3651   30.8036    2.5246 C.3       9 UNK         0.0261 
     56 CB         33.3402   29.3422    2.0430 C.3       9 UNK        -0.1959 
     57 C          33.5718   30.8581    4.0472 C.2       9 UNK         0.5033 
     58 O          34.7147   30.7396    4.4893 O.2       9 UNK        -0.5390 
     59 N          32.4808   30.9941    4.8185 N.am      10 UNK        -0.4215 
     60 CA         32.4186   31.0150    6.2888 C.3       10 UNK         0.0240 
     61 CB         33.1960   32.2209    6.8593 C.3       10 UNK        -0.1982 
     62 C          32.8107   29.6899    6.9789 C.2       10 UNK         0.4970 
     63 O          32.9149   29.6676    8.2068 O.2       10 UNK        -0.4916 
     64 N          33.0119   28.6141    6.2066 N.am      11 UNK        -0.4279 
     65 CA         33.3240   27.2685    6.7027 C.3       11 UNK         0.1003 
     66 C          32.0978   26.5358    7.3189 C.2       11 UNK         0.5709 
     67 N          32.3297   25.4577    8.0564 N.am      11 UNK        -0.7358 
     68 O          30.9451   26.9221    7.1338 O.2       11 UNK        -0.4999 
     69 C69        34.0687   26.4265    5.6319 C.3       12 UNK        -0.0954 
     70 S70        33.1313   26.1074    4.0983 S.3       12 UNK        -0.2268 
     71 C71        34.4696   25.4167    3.0762 C.3       12 UNK         0.0203 
     72 H72        28.9044   23.7313   -2.7609 H         1 UNK         0.0888 
     73 H73        28.2002   22.1561   -3.1233 H         1 UNK         0.0888 
     74 H74        27.1745   23.4666   -2.5332 H         1 UNK         0.0888 
     75 H75        29.9435   23.8088   -0.8118 H         1 UNK         0.3017 
     76 H76        30.7506   23.4391    1.1519 H         1 UNK         0.0873 
     77 H77        30.8446   21.2313    2.2121 H         1 UNK         0.0745 
     78 H78        29.4931   20.6605    1.2707 H         1 UNK         0.0745 
     79 H79        33.8919   20.8021   -0.0809 H         1 UNK         0.0705 
     80 H80        33.2783   20.7885    1.5552 H         1 UNK         0.0705 
     81 H81        34.0414   22.7614    2.6277 H         1 UNK         0.1334 
     82 H82        33.6858   26.5977    0.7578 H         1 UNK         0.1417 
     83 H83        32.5848   23.0573   -1.3984 H         1 UNK         0.1562 
     84 H84        32.9336   25.3373   -2.5508 H         1 UNK         0.0748 
     85 H85        33.0091   26.7751   -1.5621 H         1 UNK         0.0748 
     86 H86        31.3693   26.9890    0.3986 H         1 UNK         0.0940 
     87 H87        30.0126   25.9311    0.6523 H         1 UNK         0.0940 
     88 H88        29.8384   28.5156   -0.9853 H         1 UNK         0.0703 
     89 H89        27.7094   26.8267    0.2651 H         1 UNK         0.3081 
     90 H90        25.1672   28.6634   -1.3591 H         1 UNK         0.0719 
     91 H91        25.9707   25.7452   -1.8728 H         1 UNK         0.0809 
     92 H92        24.3720   26.4444   -2.1362 H         1 UNK         0.0809 
     93 H93        25.7316   26.9644   -3.1164 H         1 UNK         0.0809 
     94 H94        24.9542   26.4146    0.3182 H         1 UNK         0.2990 
     95 H95        25.5677   27.8792    3.4752 H         1 UNK         0.0690 
     96 H96        22.8870   27.0983    2.2250 H         1 UNK         0.0788 
     97 H97        23.2607   28.6676    2.9247 H         1 UNK         0.0788 
     98 H98        23.2374   27.2429    3.9481 H         1 UNK         0.0788 
     99 H99        24.5711   25.3680    3.1185 H         1 UNK         0.2993 
    100 H100       26.7882   23.6755    3.7494 H         1 UNK         0.0949 
    101 H101       24.8882   23.3123    1.3591 H         1 UNK         0.0767 
    102 H102       25.3343   22.0268    2.4752 H         1 UNK         0.0767 
    103 H103       24.4298   23.4040    3.0593 H         1 UNK         0.0767 
    104 H104       27.3370   22.8283    0.9902 H         1 UNK         0.3013 
    105 H105       28.5609   27.3435    2.1738 H         1 UNK         0.3121 
    106 H106       30.3876   28.6605    3.7606 H         1 UNK         0.0774 
    107 H107       28.8658   28.1040    5.6370 H         1 UNK         0.0815 
    108 H108       27.5628   27.7680    4.5096 H         1 UNK         0.0815 
    109 H109       29.0105   26.7620    4.5161 H         1 UNK         0.0815 
    110 H110       27.4141   30.0981    2.4560 H         1 UNK         0.2987 
    111 H111       27.2957   32.3680    4.1752 H         1 UNK         0.0949 
    112 H112       26.3949   32.0278    1.2636 H         1 UNK         0.0806 
    113 H113       25.4217   31.7009    2.6968 H         1 UNK         0.0806 
    114 H114       25.9151   33.3449    2.3268 H         1 UNK         0.0806 
    115 H115       29.4904   31.6155    1.5545 H         1 UNK         0.3010 
    116 H116       30.6224   34.3938    1.5897 H         1 UNK         0.0829 
    117 H117       31.6527   33.7547   -0.5855 H         1 UNK         0.0813 
    118 H118       30.8659   32.1824   -0.5219 H         1 UNK         0.0813 
    119 H119       29.9013   33.6501   -0.6652 H         1 UNK         0.0813 
    120 H120       31.4196   30.8875    1.6794 H         1 UNK         0.3038 
    121 H121       34.2256   31.2943    2.0646 H         1 UNK         0.0769 
    122 H122       34.2493   28.8169    2.3393 H         1 UNK         0.0811 
    123 H123       33.2731   29.2843    0.9564 H         1 UNK         0.0811 
    124 H124       32.4968   28.7911    2.4591 H         1 UNK         0.0811 
    125 H125       31.5742   31.0685    4.3676 H         1 UNK         0.3204 
    126 H126       31.3679   31.1676    6.5373 H         1 UNK         0.0748 
    127 H127       33.0118   32.3364    7.9281 H         1 UNK         0.0771 
    128 H128       34.2727   32.1104    6.7278 H         1 UNK         0.0771 
    129 H129       32.8925   33.1509    6.3785 H         1 UNK         0.0771 
    130 H130       32.8870   28.6977    5.2105 H         1 UNK         0.2980 
    131 H131       34.0267   27.4014    7.5278 H         1 UNK         0.0545 
    132 H132       31.5479   24.9666    8.4604 H         1 UNK         0.3459 
    133 H133       33.2675   25.1254    8.2173 H         1 UNK         0.3459 
    134 H134       34.9947   26.9367    5.3612 H         1 UNK         0.0616 
    135 H135       34.3756   25.4666    6.0506 H         1 UNK         0.0616 
    136 H136       35.0398   24.6968    3.6656 H         1 UNK         0.0634 
    137 H137       35.1643   26.2139    2.8073 H         1 UNK         0.0634 
@<TRIPOS>BOND
     1    1    2 1    
     2    1   72 1    
     3    1   73 1    
     4    1   74 1    
     5    2    3 2    
     6    2    4 am   BACKBONE|DICT|INTERRES
     7    4    5 1    
     8    4   75 1    
     9    5    6 1    
    10    5   35 1    
    11    5   76 1    
    12    6    7 1    
    13    6   77 1    
    14    6   78 1    
    15    7    8 1    
    16    8    9 1    
    17    8   79 1    
    18    8   80 1    
    19    9   10 ar   
    20    9   14 ar   
    21   10   11 ar   
    22   10   81 1    
    23   11   12 ar   
    24   11   71 1    
    25   12   13 ar   
    26   12   82 1    
    27   13   14 ar   
    28   13   15 1    
    29   14   83 1    
    30   15   16 1    
    31   15   84 1    
    32   15   85 1    
    33   16   17 1    
    34   17   18 1    
    35   17   86 1    
    36   17   87 1    
    37   18   19 1    
    38   18   37 1    
    39   18   88 1    
    40   19   20 am   BACKBONE|DICT|INTERRES
    41   19   89 1    
    42   20   21 2    
    43   20   22 1    
    44   22   23 1    
    45   22   24 1    
    46   22   90 1    
    47   23   91 1    
    48   23   92 1    
    49   23   93 1    
    50   24   25 am   BACKBONE|DICT|INTERRES
    51   24   94 1    
    52   25   26 2    
    53   25   27 1    
    54   27   28 1    
    55   27   29 1    
    56   27   95 1    
    57   28   96 1    
    58   28   97 1    
    59   28   98 1    
    60   29   30 am   BACKBONE|DICT|INTERRES
    61   29   99 1    
    62   30   31 2    
    63   30   32 1    
    64   32   33 1    
    65   32   34 1    
    66   32  100 1    
    67   33  101 1    
    68   33  102 1    
    69   33  103 1    
    70   34   35 am   BACKBONE|DICT|INTERRES
    71   34  104 1    
    72   35   36 2    
    73   37   38 2    
    74   37   39 am   BACKBONE|DICT|INTERRES
    75   39   40 1    
    76   39  105 1    
    77   40   41 1    
    78   40   42 1    
    79   40  106 1    
    80   41  107 1    
    81   41  108 1    
    82   41  109 1    
    83   42   43 2    
    84   42   44 am   BACKBONE|DICT|INTERRES
    85   44   45 1    
    86   44  110 1    
    87   45   46 1    
    88   45   47 1    
    89   45  111 1    
    90   46  112 1    
    91   46  113 1    
    92   46  114 1    
    93   47   48 2    
    94   47   49 am   BACKBONE|DICT|INTERRES
    95   49   50 1    
    96   49  115 1    
    97   50   51 1    
    98   50   52 1    
    99   50  116 1    
   100   51  117 1    
   101   51  118 1    
   102   51  119 1    
   103   52   53 2    
   104   52   54 am   BACKBONE|DICT|INTERRES
   105   54   55 1    
   106   54  120 1    
   107   55   56 1    
   108   55   57 1    
   109   55  121 1    
   110   56  122 1    
   111   56  123 1    
   112   56  124 1    
   113   57   58 2    
   114   57   59 am   BACKBONE|DICT|INTERRES
   115   59   60 1    
   116   59  125 1    
   117   60   61 1    
   118   60   62 1    
   119   60  126 1    
   120   61  127 1    
   121   61  128 1    
   122   61  129 1    
   123   62   63 2    
   124   62   64 am   BACKBONE|DICT|INTERRES
   125   64   65 1    
   126   64  130 1    
   127   65   66 1    
   128   65   69 1    
   129   65  131 1    
   130   66   67 am   BACKBONE|DICT|INTERRES
   131   66   68 2    
   132   67  132 1    
   133   67  133 1    
   134   69   70 1    
   135   69  134 1    
   136   69  135 1    
   137   70   71 1    
   138   71  136 1    
   139   71  137 1    
@<TRIPOS>SUBSTRUCTURE
     1 UNK         1 GROUP             0       ****    0 ROOT    
