@<TRIPOS>MOLECULE
3R136
137   139    1
SMALL
USER_CHARGES


@<TRIPOS>ATOM
      1 CA         29.7645   16.9145    1.3866 C.3       0 UNK        -0.1979 
      2 C          30.1127   18.3959    1.3609 C.2       0 UNK         0.4864 
      3 O          31.2900   18.7420    1.4605 O.2       0 UNK        -0.5359 
      4 N          29.0949   19.2585    1.2232 N.am      1 UNK        -0.4318 
      5 CA         29.1744   20.7238    1.2014 C.3       1 UNK         0.0824 
      6 C6         29.9676   21.2789   -0.0143 C.3       12 UNK        -0.0944 
      7 S7         29.5087   23.0036   -0.4031 S.3       12 UNK        -0.2672 
      8 C8         31.0603   23.8752   -0.0259 C.3       12 UNK         0.0333 
      9 C9         30.9261   25.3794   -0.2135 C.ar      12 UNK        -0.0807 
     10 C10        30.8861   26.2312    0.8955 C.ar      12 UNK        -0.0894 
     11 C11        30.8174   27.6173    0.7223 C.ar      12 UNK        -0.0804 
     12 C12        30.7882   28.1476   -0.5691 C.ar      12 UNK        -0.0824 
     13 C13        30.8023   27.3072   -1.6865 C.ar      12 UNK        -0.0762 
     14 C14        30.8782   25.9233   -1.5010 C.ar      12 UNK        -0.0782 
     15 C15        30.7706   27.8887   -3.0941 C.3       12 UNK         0.0230 
     16 S16        29.0716   28.2275   -3.6641 S.3       12 UNK        -0.2608 
     17 C17        28.6945   29.7920   -2.7961 C.3       12 UNK        -0.0989 
     18 CA         27.5016   29.7143   -1.8016 C.3       5 UNK         0.0716 
     19 N          27.4765   28.4590   -1.0341 N.am      5 UNK        -0.4135 
     20 C          26.3986   27.9647   -0.4092 C.2       4 UNK         0.5031 
     21 O          25.3742   28.6111   -0.1914 O.2       4 UNK        -0.5229 
     22 CA         26.4583   26.4917    0.0088 C.3       4 UNK         0.0329 
     23 CB         27.0351   25.5880   -1.1007 C.3       4 UNK        -0.2001 
     24 N          27.1922   26.3314    1.2637 N.am      4 UNK        -0.4303 
     25 C          27.0604   25.2787    2.0787 C.2       3 UNK         0.5044 
     26 O          26.3219   24.3158    1.8468 O.2       3 UNK        -0.5152 
     27 CA         27.8671   25.2995    3.3846 C.3       3 UNK         0.0319 
     28 CB         27.1444   26.1145    4.4745 C.3       3 UNK        -0.2001 
     29 N          28.0324   23.9146    3.8076 N.am      3 UNK        -0.4354 
     30 C          28.8906   23.4351    4.7148 C.2       2 UNK         0.4964 
     31 O          29.6336   24.1328    5.4024 O.2       2 UNK        -0.5047 
     32 CA         28.9475   21.9012    4.8516 C.3       2 UNK         0.0288 
     33 CB         27.8925   21.4032    5.8531 C.3       2 UNK        -0.2113 
     34 N          28.7597   21.2266    3.5619 N.am      2 UNK        -0.4145 
     35 C          29.6499   21.2826    2.5600 C.2       1 UNK         0.5006 
     36 O          30.7838   21.7496    2.6876 O.2       1 UNK        -0.5103 
     37 C          27.4509   31.0017   -0.9471 C.2       5 UNK         0.5055 
     38 O          27.3418   32.0849   -1.5227 O.2       5 UNK        -0.5220 
     39 N          27.5790   30.8764    0.3834 N.am      6 UNK        -0.4450 
     40 CA         27.6662   31.9540    1.3817 C.3       6 UNK         0.0367 
     41 CB         26.4215   32.8669    1.3528 C.3       6 UNK        -0.1929 
     42 C          28.9864   32.7513    1.3232 C.2       6 UNK         0.5070 
     43 O          29.0746   33.8308    1.9084 O.2       6 UNK        -0.5237 
     44 N          30.0078   32.2029    0.6521 N.am      7 UNK        -0.4739 
     45 CA         31.3070   32.8324    0.3884 C.3       7 UNK         0.0276 
     46 CB         31.8761   32.2475   -0.9190 C.3       7 UNK        -0.1927 
     47 C          32.3024   32.7215    1.5643 C.2       7 UNK         0.5013 
     48 O          33.4940   32.5088    1.3311 O.2       7 UNK        -0.5193 
     49 N          31.8004   32.8781    2.7981 N.am      8 UNK        -0.4253 
     50 CA         32.5206   32.7841    4.0758 C.3       8 UNK         0.0242 
     51 CB         33.4997   33.9704    4.2310 C.3       8 UNK        -0.2000 
     52 C          33.1797   31.4040    4.2928 C.2       8 UNK         0.4948 
     53 O          32.6783   30.4040    3.7741 O.2       8 UNK        -0.5275 
     54 N          34.2600   31.3567    5.0886 N.am      9 UNK        -0.4246 
     55 CA         35.0069   30.1548    5.4837 C.3       9 UNK         0.0261 
     56 CB         35.7994   29.5893    4.2821 C.3       9 UNK        -0.1959 
     57 C          34.0799   29.1329    6.1698 C.2       9 UNK         0.5033 
     58 O          33.5825   29.4210    7.2600 O.2       9 UNK        -0.5390 
     59 N          33.8131   27.9986    5.5066 N.am      10 UNK        -0.4215 
     60 CA         32.8552   26.9710    5.9299 C.3       10 UNK         0.0240 
     61 CB         32.9028   25.7988    4.9357 C.3       10 UNK        -0.1982 
     62 C          31.4110   27.4894    6.0792 C.2       10 UNK         0.4970 
     63 O          30.6779   26.9861    6.9305 O.2       10 UNK        -0.4916 
     64 N          31.0453   28.5017    5.2823 N.am      11 UNK        -0.4279 
     65 CA         29.7633   29.2106    5.3636 C.3       11 UNK         0.1003 
     66 C          29.7015   30.2596    6.5150 C.2       11 UNK         0.5709 
     67 N          30.7742   30.5253    7.2538 N.am      11 UNK        -0.7358 
     68 O          28.6471   30.8440    6.7509 O.2       11 UNK        -0.4999 
     69 C69        29.3779   29.8523    4.0038 C.3       12 UNK        -0.0954 
     70 S70        29.1395   28.6522    2.6504 S.3       12 UNK        -0.2268 
     71 C71        30.8034   28.5441    1.9272 C.3       12 UNK         0.0203 
     72 H72        30.2700   16.3965    0.5720 H         1 UNK         0.0888 
     73 H73        30.0889   16.4693    2.3268 H         1 UNK         0.0888 
     74 H74        28.6931   16.7437    1.2829 H         1 UNK         0.0888 
     75 H75        28.1585   18.8845    1.1501 H         1 UNK         0.3017 
     76 H76        28.1409   21.0546    1.0804 H         1 UNK         0.0873 
     77 H77        31.0456   21.1861    0.1305 H         1 UNK         0.0745 
     78 H78        29.7394   20.6869   -0.9018 H         1 UNK         0.0745 
     79 H79        31.8520   23.4978   -0.6746 H         1 UNK         0.0705 
     80 H80        31.3660   23.6494    0.9959 H         1 UNK         0.0705 
     81 H81        30.9254   25.8178    1.8940 H         1 UNK         0.1334 
     82 H82        30.7637   29.2181   -0.6987 H         1 UNK         0.1417 
     83 H83        30.9045   25.2646   -2.3588 H         1 UNK         0.1562 
     84 H84        31.2343   27.1903   -3.7926 H         1 UNK         0.0748 
     85 H85        31.3708   28.7986   -3.1437 H         1 UNK         0.0748 
     86 H86        28.4749   30.5384   -3.5623 H         1 UNK         0.0940 
     87 H87        29.5955   30.1598   -2.3064 H         1 UNK         0.0940 
     88 H88        26.5890   29.7207   -2.4020 H         1 UNK         0.0703 
     89 H89        28.2698   27.8491   -1.1785 H         1 UNK         0.3081 
     90 H90        25.4238   26.1836    0.1779 H         1 UNK         0.0719 
     91 H91        26.5664   25.7945   -2.0639 H         1 UNK         0.0809 
     92 H92        26.8596   24.5350   -0.8812 H         1 UNK         0.0809 
     93 H93        28.1087   25.7223   -1.2212 H         1 UNK         0.0809 
     94 H94        27.7983   27.0947    1.5392 H         1 UNK         0.2990 
     95 H95        28.8522   25.7260    3.1900 H         1 UNK         0.0690 
     96 H96        27.7396   26.1747    5.3858 H         1 UNK         0.0788 
     97 H97        26.1803   25.6741    4.7313 H         1 UNK         0.0788 
     98 H98        26.9584   27.1373    4.1454 H         1 UNK         0.0788 
     99 H99        27.4572   23.2717    3.2769 H         1 UNK         0.2993 
    100 H100       29.9363   21.6394    5.2356 H         1 UNK         0.0949 
    101 H101       26.8782   21.6254    5.5188 H         1 UNK         0.0767 
    102 H102       27.9685   20.3265    6.0066 H         1 UNK         0.0767 
    103 H103       28.0262   21.8784    6.8260 H         1 UNK         0.0767 
    104 H104       27.8647   20.7871    3.4012 H         1 UNK         0.3013 
    105 H105       27.6536   29.9391    0.7533 H         1 UNK         0.3121 
    106 H106       27.6602   31.4582    2.3493 H         1 UNK         0.0774 
    107 H107       26.3964   33.4966    0.4633 H         1 UNK         0.0815 
    108 H108       26.4074   33.5328    2.2164 H         1 UNK         0.0815 
    109 H109       25.5007   32.2844    1.3799 H         1 UNK         0.0815 
    110 H110       29.8601   31.2924    0.2474 H         1 UNK         0.2987 
    111 H111       31.1428   33.8999    0.2248 H         1 UNK         0.0949 
    112 H112       32.1382   31.1948   -0.8101 H         1 UNK         0.0806 
    113 H113       31.1649   32.3378   -1.7403 H         1 UNK         0.0806 
    114 H114       32.7811   32.7760   -1.2218 H         1 UNK         0.0806 
    115 H115       30.8085   33.0753    2.8588 H         1 UNK         0.3010 
    116 H116       31.7608   32.8759    4.8534 H         1 UNK         0.0829 
    117 H117       33.0080   34.9169    4.0056 H         1 UNK         0.0813 
    118 H118       33.8770   34.0500    5.2508 H         1 UNK         0.0813 
    119 H119       34.3581   33.8781    3.5642 H         1 UNK         0.0813 
    120 H120       34.5781   32.2214    5.5026 H         1 UNK         0.3038 
    121 H121       35.7296   30.4664    6.2394 H         1 UNK         0.0769 
    122 H122       35.1533   29.3056    3.4504 H         1 UNK         0.0811 
    123 H123       36.3825   28.7131    4.5692 H         1 UNK         0.0811 
    124 H124       36.5056   30.3284    3.9035 H         1 UNK         0.0811 
    125 H125       34.2464   27.8704    4.6038 H         1 UNK         0.3204 
    126 H126       33.1747   26.6070    6.9085 H         1 UNK         0.0748 
    127 H127       33.9018   25.3667    4.8757 H         1 UNK         0.0771 
    128 H128       32.2256   25.0007    5.2430 H         1 UNK         0.0771 
    129 H129       32.6067   26.1067    3.9321 H         1 UNK         0.0771 
    130 H130       31.7290   28.9188    4.6582 H         1 UNK         0.2980 
    131 H131       28.9930   28.4743    5.5994 H         1 UNK         0.0545 
    132 H132       31.6510   30.0369    7.1130 H         1 UNK         0.3459 
    133 H133       30.6965   31.2017    7.9961 H         1 UNK         0.3459 
    134 H134       28.4292   30.3767    4.1176 H         1 UNK         0.0616 
    135 H135       30.1023   30.6074    3.6995 H         1 UNK         0.0616 
    136 H136       31.1450   29.5425    1.6497 H         1 UNK         0.0634 
    137 H137       31.5088   28.1719    2.6691 H         1 UNK         0.0634 
@<TRIPOS>BOND
     1    1    2 1    
     2    1   72 1    
     3    1   73 1    
     4    1   74 1    
     5    2    3 2    
     6    2    4 am   BACKBONE|DICT|INTERRES
     7    4    5 1    
     8    4   75 1    
     9    5    6 1    
    10    5   35 1    
    11    5   76 1    
    12    6    7 1    
    13    6   77 1    
    14    6   78 1    
    15    7    8 1    
    16    8    9 1    
    17    8   79 1    
    18    8   80 1    
    19    9   10 ar   
    20    9   14 ar   
    21   10   11 ar   
    22   10   81 1    
    23   11   12 ar   
    24   11   71 1    
    25   12   13 ar   
    26   12   82 1    
    27   13   14 ar   
    28   13   15 1    
    29   14   83 1    
    30   15   16 1    
    31   15   84 1    
    32   15   85 1    
    33   16   17 1    
    34   17   18 1    
    35   17   86 1    
    36   17   87 1    
    37   18   19 1    
    38   18   37 1    
    39   18   88 1    
    40   19   20 am   BACKBONE|DICT|INTERRES
    41   19   89 1    
    42   20   21 2    
    43   20   22 1    
    44   22   23 1    
    45   22   24 1    
    46   22   90 1    
    47   23   91 1    
    48   23   92 1    
    49   23   93 1    
    50   24   25 am   BACKBONE|DICT|INTERRES
    51   24   94 1    
    52   25   26 2    
    53   25   27 1    
    54   27   28 1    
    55   27   29 1    
    56   27   95 1    
    57   28   96 1    
    58   28   97 1    
    59   28   98 1    
    60   29   30 am   BACKBONE|DICT|INTERRES
    61   29   99 1    
    62   30   31 2    
    63   30   32 1    
    64   32   33 1    
    65   32   34 1    
    66   32  100 1    
    67   33  101 1    
    68   33  102 1    
    69   33  103 1    
    70   34   35 am   BACKBONE|DICT|INTERRES
    71   34  104 1    
    72   35   36 2    
    73   37   38 2    
    74   37   39 am   BACKBONE|DICT|INTERRES
    75   39   40 1    
    76   39  105 1    
    77   40   41 1    
    78   40   42 1    
    79   40  106 1    
    80   41  107 1    
    81   41  108 1    
    82   41  109 1    
    83   42   43 2    
    84   42   44 am   BACKBONE|DICT|INTERRES
    85   44   45 1    
    86   44  110 1    
    87   45   46 1    
    88   45   47 1    
    89   45  111 1    
    90   46  112 1    
    91   46  113 1    
    92   46  114 1    
    93   47   48 2    
    94   47   49 am   BACKBONE|DICT|INTERRES
    95   49   50 1    
    96   49  115 1    
    97   50   51 1    
    98   50   52 1    
    99   50  116 1    
   100   51  117 1    
   101   51  118 1    
   102   51  119 1    
   103   52   53 2    
   104   52   54 am   BACKBONE|DICT|INTERRES
   105   54   55 1    
   106   54  120 1    
   107   55   56 1    
   108   55   57 1    
   109   55  121 1    
   110   56  122 1    
   111   56  123 1    
   112   56  124 1    
   113   57   58 2    
   114   57   59 am   BACKBONE|DICT|INTERRES
   115   59   60 1    
   116   59  125 1    
   117   60   61 1    
   118   60   62 1    
   119   60  126 1    
   120   61  127 1    
   121   61  128 1    
   122   61  129 1    
   123   62   63 2    
   124   62   64 am   BACKBONE|DICT|INTERRES
   125   64   65 1    
   126   64  130 1    
   127   65   66 1    
   128   65   69 1    
   129   65  131 1    
   130   66   67 am   BACKBONE|DICT|INTERRES
   131   66   68 2    
   132   67  132 1    
   133   67  133 1    
   134   69   70 1    
   135   69  134 1    
   136   69  135 1    
   137   70   71 1    
   138   71  136 1    
   139   71  137 1    
@<TRIPOS>SUBSTRUCTURE
     1 UNK         1 GROUP             0       ****    0 ROOT    
