@<TRIPOS>MOLECULE
3R136
137   139    1
SMALL
USER_CHARGES


@<TRIPOS>ATOM
      1 CA         26.4141   25.9685    4.8203 C.3       0 UNK        -0.1979 
      2 C          26.7637   24.7894    3.9263 C.2       0 UNK         0.4864 
      3 O          26.3247   23.6679    4.1893 O.2       0 UNK        -0.5359 
      4 N          27.5377   25.0307    2.8616 N.am      1 UNK        -0.4318 
      5 CA         27.9546   24.0388    1.8664 C.3       1 UNK         0.0824 
      6 C6         29.2445   24.4805    1.1295 C.3       12 UNK        -0.0944 
      7 S7         30.6705   24.4913    2.2710 S.3       12 UNK        -0.2672 
      8 C8         32.0719   24.2489    1.1388 C.3       12 UNK         0.0333 
      9 C9         32.5106   25.5599    0.5052 C.ar      12 UNK        -0.0807 
     10 C10        33.4208   26.3858    1.1711 C.ar      12 UNK        -0.0894 
     11 C11        33.8564   27.5787    0.5875 C.ar      12 UNK        -0.0804 
     12 C12        33.3605   27.9535   -0.6641 C.ar      12 UNK        -0.0824 
     13 C13        32.4453   27.1387   -1.3374 C.ar      12 UNK        -0.0762 
     14 C14        32.0298   25.9380   -0.7517 C.ar      12 UNK        -0.0782 
     15 C15        31.9243   27.5530   -2.7054 C.3       12 UNK         0.0230 
     16 S16        30.5151   28.6953   -2.5688 S.3       12 UNK        -0.2608 
     17 C17        29.1905   27.5442   -2.0759 C.3       12 UNK        -0.0989 
     18 CA         27.8428   28.2613   -1.7868 C.3       5 UNK         0.0716 
     19 N          26.7064   27.3706   -1.9772 N.am      5 UNK        -0.4135 
     20 C          26.1881   26.9774   -3.1440 C.2       4 UNK         0.5031 
     21 O          26.6066   27.3544   -4.2395 O.2       4 UNK        -0.5229 
     22 CA         25.0185   25.9796   -3.0891 C.3       4 UNK         0.0329 
     23 CB         25.4456   24.6218   -3.6728 C.3       4 UNK        -0.2001 
     24 N          24.5419   25.7609   -1.7221 N.am      4 UNK        -0.4303 
     25 C          23.4918   26.3730   -1.1560 C.2       3 UNK         0.5044 
     26 O          22.8093   27.2200   -1.7343 O.2       3 UNK        -0.5152 
     27 CA         23.1542   25.9935    0.3049 C.3       3 UNK         0.0319 
     28 CB         21.6338   25.9617    0.5690 C.3       3 UNK        -0.2001 
     29 N          23.7961   24.7509    0.7594 N.am      3 UNK        -0.4354 
     30 C          23.6365   23.5149    0.2581 C.2       2 UNK         0.4964 
     31 O          22.7889   23.2249   -0.5872 O.2       2 UNK        -0.5047 
     32 CA         24.6136   22.4261    0.7503 C.3       2 UNK         0.0288 
     33 CB         25.0032   21.4514   -0.3820 C.3       2 UNK        -0.2113 
     34 N          25.8242   22.9370    1.4132 N.am      2 UNK        -0.4145 
     35 C          26.7831   23.7323    0.9105 C.2       1 UNK         0.5006 
     36 O          26.7359   24.2469   -0.2103 O.2       1 UNK        -0.5103 
     37 C          27.7339   28.8547   -0.3671 C.2       5 UNK         0.5055 
     38 O          26.6375   28.8783    0.2015 O.2       5 UNK        -0.5220 
     39 N          28.8650   29.3193    0.1765 N.am      6 UNK        -0.4450 
     40 CA         29.0228   29.7986    1.5500 C.3       6 UNK         0.0367 
     41 CB         30.2062   30.7890    1.5899 C.3       6 UNK        -0.1929 
     42 C          29.1695   28.6176    2.5351 C.2       6 UNK         0.5070 
     43 O          28.4863   27.6034    2.3895 O.2       6 UNK        -0.5237 
     44 N          30.0482   28.7597    3.5296 N.am      7 UNK        -0.4739 
     45 CA         30.4261   27.7217    4.4805 C.3       7 UNK         0.0276 
     46 CB         29.6334   27.9001    5.7863 C.3       7 UNK        -0.1927 
     47 C          31.9232   27.8826    4.7353 C.2       7 UNK         0.5013 
     48 O          32.3875   29.0208    4.8271 O.2       7 UNK        -0.5193 
     49 N          32.6478   26.7696    4.9039 N.am      8 UNK        -0.4253 
     50 CA         34.1032   26.7488    5.1125 C.3       8 UNK         0.0242 
     51 CB         34.5850   25.2913    5.1874 C.3       8 UNK        -0.2000 
     52 C          34.5942   27.5486    6.3359 C.2       8 UNK         0.4948 
     53 O          35.7158   28.0546    6.3119 O.2       8 UNK        -0.5275 
     54 N          33.7417   27.6732    7.3626 N.am      9 UNK        -0.4246 
     55 CA         33.9750   28.5077    8.5431 C.3       9 UNK         0.0261 
     56 CB         33.0694   28.0191    9.6859 C.3       9 UNK        -0.1959 
     57 C          33.7491   30.0117    8.2888 C.2       9 UNK         0.5033 
     58 O          34.2838   30.8249    9.0442 O.2       9 UNK        -0.5390 
     59 N          32.9572   30.3619    7.2647 N.am      10 UNK        -0.4215 
     60 CA         32.6549   31.7423    6.8783 C.3       10 UNK         0.0240 
     61 CB         31.2168   31.8233    6.3371 C.3       10 UNK        -0.1982 
     62 C          33.6543   32.2775    5.8409 C.2       10 UNK         0.4970 
     63 O          33.9309   33.4778    5.8476 O.2       10 UNK        -0.4916 
     64 N          34.1717   31.3933    4.9760 N.am      11 UNK        -0.4279 
     65 CA         35.2135   31.6820    3.9783 C.3       11 UNK         0.1003 
     66 C          36.5222   32.2449    4.6021 C.2       11 UNK         0.5709 
     67 N          37.1876   33.1666    3.9185 N.am      11 UNK        -0.7358 
     68 O          36.9607   31.8249    5.6714 O.2       11 UNK        -0.4999 
     69 C69        35.5342   30.4335    3.1178 C.3       12 UNK        -0.0954 
     70 S70        34.1063   29.8384    2.1583 S.3       12 UNK        -0.2268 
     71 C71        34.8856   28.4454    1.2940 C.3       12 UNK         0.0203 
     72 H72        25.3426   25.9870    5.0174 H         1 UNK         0.0888 
     73 H73        26.6868   26.9179    4.3600 H         1 UNK         0.0888 
     74 H74        26.9357   25.8841    5.7731 H         1 UNK         0.0888 
     75 H75        27.8710   25.9813    2.6882 H         1 UNK         0.3017 
     76 H76        28.1851   23.1056    2.3860 H         1 UNK         0.0873 
     77 H77        29.1274   25.4740    0.6937 H         1 UNK         0.0745 
     78 H78        29.4617   23.8006    0.3038 H         1 UNK         0.0745 
     79 H79        32.9028   23.8222    1.7029 H         1 UNK         0.0705 
     80 H80        31.8189   23.5121    0.3751 H         1 UNK         0.0705 
     81 H81        33.7990   26.0917    2.1399 H         1 UNK         0.1334 
     82 H82        33.6909   28.8792   -1.1159 H         1 UNK         0.1417 
     83 H83        31.3314   25.2973   -1.2726 H         1 UNK         0.1562 
     84 H84        31.6362   26.6789   -3.2917 H         1 UNK         0.0748 
     85 H85        32.7208   28.0440   -3.2668 H         1 UNK         0.0748 
     86 H86        29.5014   26.9455   -1.2193 H         1 UNK         0.0940 
     87 H87        29.0741   26.8377   -2.8994 H         1 UNK         0.0940 
     88 H88        27.7214   29.0953   -2.4815 H         1 UNK         0.0703 
     89 H89        26.2611   27.0766   -1.1183 H         1 UNK         0.3081 
     90 H90        24.2128   26.3810   -3.7072 H         1 UNK         0.0719 
     91 H91        26.2675   24.1806   -3.1069 H         1 UNK         0.0809 
     92 H92        24.6182   23.9117   -3.6686 H         1 UNK         0.0809 
     93 H93        25.7781   24.7255   -4.7066 H         1 UNK         0.0809 
     94 H94        25.0756   25.0990   -1.1677 H         1 UNK         0.2990 
     95 H95        23.5767   26.7890    0.9206 H         1 UNK         0.0690 
     96 H96        21.4160   25.6998    1.6043 H         1 UNK         0.0788 
     97 H97        21.1243   25.2434   -0.0738 H         1 UNK         0.0788 
     98 H98        21.1836   26.9375    0.3824 H         1 UNK         0.0788 
     99 H99        24.5191   24.8696    1.4546 H         1 UNK         0.2993 
    100 H100       24.0690   21.8581    1.5062 H         1 UNK         0.0949 
    101 H101       24.1254   20.9487   -0.7901 H         1 UNK         0.0767 
    102 H102       25.4950   21.9676   -1.2075 H         1 UNK         0.0767 
    103 H103       25.6782   20.6747   -0.0224 H         1 UNK         0.0767 
    104 H104       25.9216   22.6852    2.3926 H         1 UNK         0.3013 
    105 H105       29.7124   29.2326   -0.3699 H         1 UNK         0.3121 
    106 H106       28.1196   30.3407    1.8376 H         1 UNK         0.0774 
    107 H107       30.0770   31.5847    0.8559 H         1 UNK         0.0815 
    108 H108       31.1548   30.2945    1.3755 H         1 UNK         0.0815 
    109 H109       30.2932   31.2741    2.5629 H         1 UNK         0.0815 
    110 H110       30.6338   29.5845    3.5656 H         1 UNK         0.2987 
    111 H111       30.2328   26.7331    4.0611 H         1 UNK         0.0949 
    112 H112       29.8620   28.8500    6.2718 H         1 UNK         0.0806 
    113 H113       28.5600   27.8750    5.6050 H         1 UNK         0.0806 
    114 H114       29.8628   27.1043    6.4958 H         1 UNK         0.0806 
    115 H115       32.1883   25.8728    4.8299 H         1 UNK         0.3010 
    116 H116       34.5576   27.2134    4.2354 H         1 UNK         0.0829 
    117 H117       34.3390   24.7421    4.2783 H         1 UNK         0.0813 
    118 H118       35.6683   25.2443    5.3080 H         1 UNK         0.0813 
    119 H119       34.1401   24.7622    6.0310 H         1 UNK         0.0813 
    120 H120       32.8503   27.2033    7.3029 H         1 UNK         0.3038 
    121 H121       35.0139   28.3820    8.8560 H         1 UNK         0.0769 
    122 H122       32.0123   28.1139    9.4340 H         1 UNK         0.0811 
    123 H123       33.2405   28.5991   10.5941 H         1 UNK         0.0811 
    124 H124       33.2657   26.9748    9.9299 H         1 UNK         0.0811 
    125 H125       32.6241   29.6438    6.6292 H         1 UNK         0.3204 
    126 H126       32.7147   32.3856    7.7589 H         1 UNK         0.0748 
    127 H127       30.4960   31.4653    7.0723 H         1 UNK         0.0771 
    128 H128       30.9504   32.8537    6.0978 H         1 UNK         0.0771 
    129 H129       31.0872   31.2367    5.4276 H         1 UNK         0.0771 
    130 H130       33.8231   30.4418    4.9871 H         1 UNK         0.2980 
    131 H131       34.8052   32.4511    3.3198 H         1 UNK         0.0545 
    132 H132       38.0466   33.5325    4.2986 H         1 UNK         0.3459 
    133 H133       36.8456   33.5091    3.0341 H         1 UNK         0.3459 
    134 H134       36.3363   30.6526    2.4101 H         1 UNK         0.0616 
    135 H135       35.8926   29.6192    3.7509 H         1 UNK         0.0616 
    136 H136       35.4541   27.8468    2.0073 H         1 UNK         0.0634 
    137 H137       35.6070   28.8296    0.5713 H         1 UNK         0.0634 
@<TRIPOS>BOND
     1    1    2 1    
     2    1   72 1    
     3    1   73 1    
     4    1   74 1    
     5    2    3 2    
     6    2    4 am   BACKBONE|DICT|INTERRES
     7    4    5 1    
     8    4   75 1    
     9    5    6 1    
    10    5   35 1    
    11    5   76 1    
    12    6    7 1    
    13    6   77 1    
    14    6   78 1    
    15    7    8 1    
    16    8    9 1    
    17    8   79 1    
    18    8   80 1    
    19    9   10 ar   
    20    9   14 ar   
    21   10   11 ar   
    22   10   81 1    
    23   11   12 ar   
    24   11   71 1    
    25   12   13 ar   
    26   12   82 1    
    27   13   14 ar   
    28   13   15 1    
    29   14   83 1    
    30   15   16 1    
    31   15   84 1    
    32   15   85 1    
    33   16   17 1    
    34   17   18 1    
    35   17   86 1    
    36   17   87 1    
    37   18   19 1    
    38   18   37 1    
    39   18   88 1    
    40   19   20 am   BACKBONE|DICT|INTERRES
    41   19   89 1    
    42   20   21 2    
    43   20   22 1    
    44   22   23 1    
    45   22   24 1    
    46   22   90 1    
    47   23   91 1    
    48   23   92 1    
    49   23   93 1    
    50   24   25 am   BACKBONE|DICT|INTERRES
    51   24   94 1    
    52   25   26 2    
    53   25   27 1    
    54   27   28 1    
    55   27   29 1    
    56   27   95 1    
    57   28   96 1    
    58   28   97 1    
    59   28   98 1    
    60   29   30 am   BACKBONE|DICT|INTERRES
    61   29   99 1    
    62   30   31 2    
    63   30   32 1    
    64   32   33 1    
    65   32   34 1    
    66   32  100 1    
    67   33  101 1    
    68   33  102 1    
    69   33  103 1    
    70   34   35 am   BACKBONE|DICT|INTERRES
    71   34  104 1    
    72   35   36 2    
    73   37   38 2    
    74   37   39 am   BACKBONE|DICT|INTERRES
    75   39   40 1    
    76   39  105 1    
    77   40   41 1    
    78   40   42 1    
    79   40  106 1    
    80   41  107 1    
    81   41  108 1    
    82   41  109 1    
    83   42   43 2    
    84   42   44 am   BACKBONE|DICT|INTERRES
    85   44   45 1    
    86   44  110 1    
    87   45   46 1    
    88   45   47 1    
    89   45  111 1    
    90   46  112 1    
    91   46  113 1    
    92   46  114 1    
    93   47   48 2    
    94   47   49 am   BACKBONE|DICT|INTERRES
    95   49   50 1    
    96   49  115 1    
    97   50   51 1    
    98   50   52 1    
    99   50  116 1    
   100   51  117 1    
   101   51  118 1    
   102   51  119 1    
   103   52   53 2    
   104   52   54 am   BACKBONE|DICT|INTERRES
   105   54   55 1    
   106   54  120 1    
   107   55   56 1    
   108   55   57 1    
   109   55  121 1    
   110   56  122 1    
   111   56  123 1    
   112   56  124 1    
   113   57   58 2    
   114   57   59 am   BACKBONE|DICT|INTERRES
   115   59   60 1    
   116   59  125 1    
   117   60   61 1    
   118   60   62 1    
   119   60  126 1    
   120   61  127 1    
   121   61  128 1    
   122   61  129 1    
   123   62   63 2    
   124   62   64 am   BACKBONE|DICT|INTERRES
   125   64   65 1    
   126   64  130 1    
   127   65   66 1    
   128   65   69 1    
   129   65  131 1    
   130   66   67 am   BACKBONE|DICT|INTERRES
   131   66   68 2    
   132   67  132 1    
   133   67  133 1    
   134   69   70 1    
   135   69  134 1    
   136   69  135 1    
   137   70   71 1    
   138   71  136 1    
   139   71  137 1    
@<TRIPOS>SUBSTRUCTURE
     1 UNK         1 GROUP             0       ****    0 ROOT    
