@<TRIPOS>MOLECULE
3R136
137   139    1
SMALL
USER_CHARGES


@<TRIPOS>ATOM
      1 CA         30.1317   19.3715    0.4092 C.3       0 UNK        -0.1979 
      2 C          30.3974   20.2936   -0.7719 C.2       0 UNK         0.4864 
      3 O          30.5248   19.8195   -1.9023 O.2       0 UNK        -0.5359 
      4 N          30.4889   21.6041   -0.5160 N.am      1 UNK        -0.4318 
      5 CA         30.6516   22.6495   -1.5298 C.3       1 UNK         0.0824 
      6 C6         31.3791   23.8944   -0.9523 C.3       12 UNK        -0.0944 
      7 S7         30.5240   24.7047    0.4440 S.3       12 UNK        -0.2672 
      8 C8         31.4885   24.1002    1.8637 C.3       12 UNK         0.0333 
      9 C9         30.8938   24.5962    3.1724 C.ar      12 UNK        -0.0807 
     10 C10        31.4437   25.7044    3.8213 C.ar      12 UNK        -0.0894 
     11 C11        30.8817   26.1855    5.0068 C.ar      12 UNK        -0.0804 
     12 C12        29.7794   25.5305    5.5627 C.ar      12 UNK        -0.0824 
     13 C13        29.2205   24.4193    4.9233 C.ar      12 UNK        -0.0762 
     14 C14        29.7826   23.9560    3.7294 C.ar      12 UNK        -0.0782 
     15 C15        28.0042   23.7209    5.5121 C.3       12 UNK         0.0230 
     16 S16        26.4565   24.3325    4.7714 S.3       12 UNK        -0.2608 
     17 C17        26.2677   25.9596    5.5792 C.3       12 UNK        -0.0989 
     18 CA         26.6746   27.1502    4.6689 C.3       5 UNK         0.0716 
     19 N          25.9203   27.1494    3.4047 N.am      5 UNK        -0.4135 
     20 C          26.2483   27.7919    2.2762 C.2       4 UNK         0.5031 
     21 O          27.2050   28.5674    2.1794 O.2       4 UNK        -0.5229 
     22 CA         25.3040   27.6047    1.0783 C.3       4 UNK         0.0329 
     23 CB         24.1655   28.6366    1.1354 C.3       4 UNK        -0.2001 
     24 N          26.0194   27.7543   -0.1909 N.am      4 UNK        -0.4303 
     25 C          26.8928   26.8619   -0.6740 C.2       3 UNK         0.5044 
     26 O          27.1168   25.7700   -0.1480 O.2       3 UNK        -0.5152 
     27 CA         27.6515   27.2828   -1.9453 C.3       3 UNK         0.0319 
     28 CB         28.8223   28.2191   -1.6018 C.3       3 UNK        -0.2001 
     29 N          28.1769   26.1279   -2.6737 N.am      3 UNK        -0.4354 
     30 C          27.4517   25.3243   -3.4629 C.2       2 UNK         0.4964 
     31 O          26.2613   25.5107   -3.7200 O.2       2 UNK        -0.5047 
     32 CA         28.1758   24.1206   -4.0963 C.3       2 UNK         0.0288 
     33 CB         28.5971   24.4472   -5.5389 C.3       2 UNK        -0.2113 
     34 N          29.3541   23.6786   -3.3413 N.am      2 UNK        -0.4145 
     35 C          29.2964   22.9954   -2.1890 C.2       1 UNK         0.5006 
     36 O          28.2371   22.6465   -1.6592 O.2       1 UNK        -0.5103 
     37 C          26.6000   28.5040    5.4225 C.2       5 UNK         0.5055 
     38 O          26.3007   28.5377    6.6176 O.2       5 UNK        -0.5220 
     39 N          26.8725   29.5937    4.7029 N.am      6 UNK        -0.4450 
     40 CA         26.9021   30.9869    5.1430 C.3       6 UNK         0.0367 
     41 CB         25.4951   31.4889    5.5235 C.3       6 UNK        -0.1929 
     42 C          27.5018   31.8543    4.0282 C.2       6 UNK         0.5070 
     43 O          28.2999   32.7459    4.3147 O.2       6 UNK        -0.5237 
     44 N          27.1236   31.5616    2.7742 N.am      7 UNK        -0.4739 
     45 CA         27.6799   32.1772    1.5670 C.3       7 UNK         0.0276 
     46 CB         26.7348   31.9112    0.3839 C.3       7 UNK        -0.1927 
     47 C          29.0948   31.6678    1.2424 C.2       7 UNK         0.5013 
     48 O          29.8966   32.4279    0.6985 O.2       7 UNK        -0.5193 
     49 N          29.3674   30.3956    1.5683 N.am      8 UNK        -0.4253 
     50 CA         30.6573   29.7277    1.4073 C.3       8 UNK         0.0242 
     51 CB         30.5024   28.2530    1.8091 C.3       8 UNK        -0.2000 
     52 C          31.7604   30.4041    2.2404 C.2       8 UNK         0.4948 
     53 O          31.6948   30.3887    3.4711 O.2       8 UNK        -0.5275 
     54 N          32.7606   30.9711    1.5538 N.am      9 UNK        -0.4246 
     55 CA         33.8765   31.7076    2.1576 C.3       9 UNK         0.0261 
     56 CB         34.5598   32.5559    1.0721 C.3       9 UNK        -0.1959 
     57 C          34.9113   30.8189    2.8722 C.2       9 UNK         0.5033 
     58 O          35.7133   31.3441    3.6458 O.2       9 UNK        -0.5390 
     59 N          34.8865   29.5031    2.6113 N.am      10 UNK        -0.4215 
     60 CA         35.8258   28.5026    3.1341 C.3       10 UNK         0.0240 
     61 CB         35.4869   27.1298    2.5297 C.3       10 UNK        -0.1982 
     62 C          35.8957   28.4099    4.6708 C.2       10 UNK         0.4970 
     63 O          36.9367   28.0117    5.1953 O.2       10 UNK        -0.4916 
     64 N          34.8103   28.7862    5.3583 N.am      11 UNK        -0.4279 
     65 CA         34.7483   28.8874    6.8250 C.3       11 UNK         0.1003 
     66 C          35.3697   30.1965    7.3973 C.2       11 UNK         0.5709 
     67 N          35.7995   31.1561    6.5849 N.am      11 UNK        -0.7358 
     68 O          35.4786   30.3401    8.6129 O.2       11 UNK        -0.4999 
     69 C69        33.3084   28.6625    7.3570 C.3       12 UNK        -0.0954 
     70 S70        32.6683   27.0062    6.9402 S.3       12 UNK        -0.2268 
     71 C71        31.4482   27.4314    5.6658 C.3       12 UNK         0.0203 
     72 H72        30.0607   19.9209    1.3479 H         1 UNK         0.0888 
     73 H73        29.1965   18.8324    0.2605 H         1 UNK         0.0888 
     74 H74        30.9353   18.6416    0.5040 H         1 UNK         0.0888 
     75 H75        30.3112   21.9426    0.4177 H         1 UNK         0.3017 
     76 H76        31.2879   22.2481   -2.3220 H         1 UNK         0.0873 
     77 H77        32.3842   23.6110   -0.6358 H         1 UNK         0.0745 
     78 H78        31.5298   24.6429   -1.7319 H         1 UNK         0.0745 
     79 H79        31.5124   23.0099    1.8608 H         1 UNK         0.0705 
     80 H80        32.5231   24.4328    1.7643 H         1 UNK         0.0705 
     81 H81        32.2967   26.2088    3.3916 H         1 UNK         0.1334 
     82 H82        29.3478   25.8980    6.4835 H         1 UNK         0.1417 
     83 H83        29.3443   23.1058    3.2247 H         1 UNK         0.1562 
     84 H84        27.9737   23.8410    6.5962 H         1 UNK         0.0748 
     85 H85        28.0774   22.6474    5.3313 H         1 UNK         0.0748 
     86 H86        26.8485   25.9637    6.5033 H         1 UNK         0.0940 
     87 H87        25.2253   26.0607    5.8875 H         1 UNK         0.0940 
     88 H88        27.7256   27.0171    4.4058 H         1 UNK         0.0703 
     89 H89        25.1007   26.5601    3.3977 H         1 UNK         0.3081 
     90 H90        24.8755   26.6008    1.1191 H         1 UNK         0.0719 
     91 H91        24.5410   29.6598    1.0977 H         1 UNK         0.0809 
     92 H92        23.4696   28.5049    0.3066 H         1 UNK         0.0809 
     93 H93        23.5896   28.5360    2.0565 H         1 UNK         0.0809 
     94 H94        25.9107   28.6359   -0.6692 H         1 UNK         0.2990 
     95 H95        26.9570   27.8213   -2.5941 H         1 UNK         0.0690 
     96 H96        28.4958   29.0591   -0.9870 H         1 UNK         0.0788 
     97 H97        29.2711   28.6353   -2.5038 H         1 UNK         0.0788 
     98 H98        29.6057   27.6954   -1.0540 H         1 UNK         0.0788 
     99 H99        29.1301   25.8666   -2.4733 H         1 UNK         0.2993 
    100 H100       27.4604   23.2955   -4.1303 H         1 UNK         0.0949 
    101 H101       29.0396   23.5799   -6.0296 H         1 UNK         0.0767 
    102 H102       27.7368   24.7511   -6.1372 H         1 UNK         0.0767 
    103 H103       29.3221   25.2615   -5.5744 H         1 UNK         0.0767 
    104 H104       30.2560   23.9175   -3.7286 H         1 UNK         0.3013 
    105 H105       27.1438   29.4249    3.7356 H         1 UNK         0.3121 
    106 H106       27.5556   31.0575    6.0150 H         1 UNK         0.0774 
    107 H107       24.7885   31.3726    4.7011 H         1 UNK         0.0815 
    108 H108       25.0965   30.9535    6.3849 H         1 UNK         0.0815 
    109 H109       25.5180   32.5469    5.7882 H         1 UNK         0.0815 
    110 H110       26.4422   30.8315    2.6283 H         1 UNK         0.2987 
    111 H111       27.7423   33.2564    1.7247 H         1 UNK         0.0949 
    112 H112       26.6395   30.8450    0.1758 H         1 UNK         0.0806 
    113 H113       25.7377   32.3091    0.5734 H         1 UNK         0.0806 
    114 H114       27.1055   32.3880   -0.5246 H         1 UNK         0.0806 
    115 H115       28.6178   29.8271    1.9502 H         1 UNK         0.3010 
    116 H116       30.9230   29.7694    0.3492 H         1 UNK         0.0829 
    117 H117       29.7159   27.7559    1.2424 H         1 UNK         0.0813 
    118 H118       31.4256   27.7005    1.6342 H         1 UNK         0.0813 
    119 H119       30.2465   28.1518    2.8641 H         1 UNK         0.0813 
    120 H120       32.7253   30.9570    0.5440 H         1 UNK         0.3038 
    121 H121       33.4654   32.3857    2.9088 H         1 UNK         0.0769 
    122 H122       33.8587   33.2534    0.6133 H         1 UNK         0.0811 
    123 H123       34.9852   31.9360    0.2817 H         1 UNK         0.0811 
    124 H124       35.3729   33.1491    1.4933 H         1 UNK         0.0811 
    125 H125       34.1920   29.1723    1.9584 H         1 UNK         0.3204 
    126 H126       36.8214   28.7892    2.7892 H         1 UNK         0.0748 
    127 H127       36.1882   26.3677    2.8728 H         1 UNK         0.0771 
    128 H128       34.4870   26.8009    2.8117 H         1 UNK         0.0771 
    129 H129       35.5414   27.1486    1.4410 H         1 UNK         0.0771 
    130 H130       34.0055   29.1235    4.8519 H         1 UNK         0.2980 
    131 H131       35.3618   28.0837    7.2369 H         1 UNK         0.0545 
    132 H132       36.2026   31.9879    6.9852 H         1 UNK         0.3459 
    133 H133       35.7362   31.0682    5.5753 H         1 UNK         0.3459 
    134 H134       33.2839   28.7468    8.4449 H         1 UNK         0.0616 
    135 H135       32.6334   29.4325    6.9787 H         1 UNK         0.0616 
    136 H136       30.6446   28.0195    6.1119 H         1 UNK         0.0634 
    137 H137       31.9166   28.0687    4.9148 H         1 UNK         0.0634 
@<TRIPOS>BOND
     1    1    2 1    
     2    1   72 1    
     3    1   73 1    
     4    1   74 1    
     5    2    3 2    
     6    2    4 am   BACKBONE|DICT|INTERRES
     7    4    5 1    
     8    4   75 1    
     9    5    6 1    
    10    5   35 1    
    11    5   76 1    
    12    6    7 1    
    13    6   77 1    
    14    6   78 1    
    15    7    8 1    
    16    8    9 1    
    17    8   79 1    
    18    8   80 1    
    19    9   10 ar   
    20    9   14 ar   
    21   10   11 ar   
    22   10   81 1    
    23   11   12 ar   
    24   11   71 1    
    25   12   13 ar   
    26   12   82 1    
    27   13   14 ar   
    28   13   15 1    
    29   14   83 1    
    30   15   16 1    
    31   15   84 1    
    32   15   85 1    
    33   16   17 1    
    34   17   18 1    
    35   17   86 1    
    36   17   87 1    
    37   18   19 1    
    38   18   37 1    
    39   18   88 1    
    40   19   20 am   BACKBONE|DICT|INTERRES
    41   19   89 1    
    42   20   21 2    
    43   20   22 1    
    44   22   23 1    
    45   22   24 1    
    46   22   90 1    
    47   23   91 1    
    48   23   92 1    
    49   23   93 1    
    50   24   25 am   BACKBONE|DICT|INTERRES
    51   24   94 1    
    52   25   26 2    
    53   25   27 1    
    54   27   28 1    
    55   27   29 1    
    56   27   95 1    
    57   28   96 1    
    58   28   97 1    
    59   28   98 1    
    60   29   30 am   BACKBONE|DICT|INTERRES
    61   29   99 1    
    62   30   31 2    
    63   30   32 1    
    64   32   33 1    
    65   32   34 1    
    66   32  100 1    
    67   33  101 1    
    68   33  102 1    
    69   33  103 1    
    70   34   35 am   BACKBONE|DICT|INTERRES
    71   34  104 1    
    72   35   36 2    
    73   37   38 2    
    74   37   39 am   BACKBONE|DICT|INTERRES
    75   39   40 1    
    76   39  105 1    
    77   40   41 1    
    78   40   42 1    
    79   40  106 1    
    80   41  107 1    
    81   41  108 1    
    82   41  109 1    
    83   42   43 2    
    84   42   44 am   BACKBONE|DICT|INTERRES
    85   44   45 1    
    86   44  110 1    
    87   45   46 1    
    88   45   47 1    
    89   45  111 1    
    90   46  112 1    
    91   46  113 1    
    92   46  114 1    
    93   47   48 2    
    94   47   49 am   BACKBONE|DICT|INTERRES
    95   49   50 1    
    96   49  115 1    
    97   50   51 1    
    98   50   52 1    
    99   50  116 1    
   100   51  117 1    
   101   51  118 1    
   102   51  119 1    
   103   52   53 2    
   104   52   54 am   BACKBONE|DICT|INTERRES
   105   54   55 1    
   106   54  120 1    
   107   55   56 1    
   108   55   57 1    
   109   55  121 1    
   110   56  122 1    
   111   56  123 1    
   112   56  124 1    
   113   57   58 2    
   114   57   59 am   BACKBONE|DICT|INTERRES
   115   59   60 1    
   116   59  125 1    
   117   60   61 1    
   118   60   62 1    
   119   60  126 1    
   120   61  127 1    
   121   61  128 1    
   122   61  129 1    
   123   62   63 2    
   124   62   64 am   BACKBONE|DICT|INTERRES
   125   64   65 1    
   126   64  130 1    
   127   65   66 1    
   128   65   69 1    
   129   65  131 1    
   130   66   67 am   BACKBONE|DICT|INTERRES
   131   66   68 2    
   132   67  132 1    
   133   67  133 1    
   134   69   70 1    
   135   69  134 1    
   136   69  135 1    
   137   70   71 1    
   138   71  136 1    
   139   71  137 1    
@<TRIPOS>SUBSTRUCTURE
     1 UNK         1 GROUP             0       ****    0 ROOT    
