@<TRIPOS>MOLECULE
3R136
137   139    1
SMALL
USER_CHARGES


@<TRIPOS>ATOM
      1 CA         33.6869   27.7499   -3.2865 C.3       0 UNK        -0.1979 
      2 C          32.4539   27.7218   -2.3964 C.2       0 UNK         0.4864 
      3 O          32.1568   28.7227   -1.7409 O.2       0 UNK        -0.5359 
      4 N          31.7443   26.5832   -2.3643 N.am      1 UNK        -0.4318 
      5 CA         30.5004   26.3881   -1.6106 C.3       1 UNK         0.0824 
      6 C6         30.0963   24.8879   -1.5209 C.3       12 UNK        -0.0944 
      7 S7         29.7763   24.3807    0.2023 S.3       12 UNK        -0.2672 
      8 C8         31.2086   23.3067    0.5289 C.3       12 UNK         0.0333 
      9 C9         31.3740   23.0630    2.0205 C.ar      12 UNK        -0.0807 
     10 C10        32.2804   23.8314    2.7555 C.ar      12 UNK        -0.0894 
     11 C11        32.4201   23.6467    4.1353 C.ar      12 UNK        -0.0804 
     12 C12        31.6346   22.6843    4.7776 C.ar      12 UNK        -0.0824 
     13 C13        30.7314   21.8991    4.0524 C.ar      12 UNK        -0.0762 
     14 C14        30.6196   22.0804    2.6691 C.ar      12 UNK        -0.0782 
     15 C15        29.8768   20.8584    4.7688 C.3       12 UNK         0.0230 
     16 S16        28.0865   21.1942    4.6406 S.3       12 UNK        -0.2608 
     17 C17        27.9614   22.8940    5.2979 C.3       12 UNK        -0.0989 
     18 CA         27.8773   23.9345    4.1487 C.3       5 UNK         0.0716 
     19 N          26.7137   23.7678    3.2740 N.am      5 UNK        -0.4135 
     20 C          25.4267   23.9603    3.5838 C.2       4 UNK         0.5031 
     21 O          25.0179   24.2810    4.7016 O.2       4 UNK        -0.5229 
     22 CA         24.4324   23.7925    2.4172 C.3       4 UNK         0.0329 
     23 CB         23.0434   23.3412    2.9049 C.3       4 UNK        -0.2001 
     24 N          24.2833   25.0205    1.6292 N.am      4 UNK        -0.4303 
     25 C          25.2488   25.6217    0.9202 C.2       3 UNK         0.5044 
     26 O          26.4003   25.1897    0.8316 O.2       3 UNK        -0.5152 
     27 CA         24.8667   26.9110    0.1781 C.3       3 UNK         0.0319 
     28 CB         24.0294   27.8786    1.0416 C.3       3 UNK        -0.2001 
     29 N          26.0912   27.5629   -0.2818 N.am      3 UNK        -0.4354 
     30 C          26.1896   28.4055   -1.3165 C.2       2 UNK         0.4964 
     31 O          25.2265   28.7773   -1.9882 O.2       2 UNK        -0.5047 
     32 CA         27.5910   28.9203   -1.6774 C.3       2 UNK         0.0288 
     33 CB         27.8795   30.2420   -0.9443 C.3       2 UNK        -0.2113 
     34 N          28.6345   27.9564   -1.3277 N.am      2 UNK        -0.4145 
     35 C          29.3721   27.2629   -2.2001 C.2       1 UNK         0.5006 
     36 O          29.2066   27.2958   -3.4229 O.2       1 UNK        -0.5103 
     37 C          28.0543   25.3961    4.6040 C.2       5 UNK         0.5055 
     38 O          28.3200   25.6608    5.7769 O.2       5 UNK        -0.5220 
     39 N          27.9322   26.3140    3.6407 N.am      6 UNK        -0.4450 
     40 CA         28.3461   27.7071    3.7335 C.3       6 UNK         0.0367 
     41 CB         27.1191   28.6162    3.8923 C.3       6 UNK        -0.1929 
     42 C          29.0802   27.9973    2.4249 C.2       6 UNK         0.5070 
     43 O          28.6312   27.5319    1.3741 O.2       6 UNK        -0.5237 
     44 N          30.1843   28.7386    2.4962 N.am      7 UNK        -0.4739 
     45 CA         31.0569   29.0359    1.3658 C.3       7 UNK         0.0276 
     46 CB         32.3744   28.2639    1.5557 C.3       7 UNK        -0.1927 
     47 C          31.2841   30.5443    1.2493 C.2       7 UNK         0.5013 
     48 O          30.8943   31.2981    2.1450 O.2       7 UNK        -0.5193 
     49 N          31.9020   30.9553    0.1344 N.am      8 UNK        -0.4253 
     50 CA         32.2580   32.3381   -0.1982 C.3       8 UNK         0.0242 
     51 CB         32.9199   32.3574   -1.5875 C.3       8 UNK        -0.2000 
     52 C          33.1568   32.9851    0.8751 C.2       8 UNK         0.4948 
     53 O          34.3790   32.8357    0.8222 O.2       8 UNK        -0.5275 
     54 N          32.5117   33.6511    1.8450 N.am      9 UNK        -0.4246 
     55 CA         33.0770   34.2421    3.0629 C.3       9 UNK         0.0261 
     56 CB         33.9757   35.4496    2.7174 C.3       9 UNK        -0.1959 
     57 C          33.7757   33.2097    3.9747 C.2       9 UNK         0.5033 
     58 O          34.8010   33.5324    4.5799 O.2       9 UNK        -0.5390 
     59 N          33.2230   31.9910    4.0657 N.am      10 UNK        -0.4215 
     60 CA         33.7944   30.8823    4.8317 C.3       10 UNK         0.0240 
     61 CB         34.9137   30.2122    4.0079 C.3       10 UNK        -0.1982 
     62 C          32.7123   29.8725    5.2383 C.2       10 UNK         0.4970 
     63 O          31.5868   29.9335    4.7413 O.2       10 UNK        -0.4916 
     64 N          33.0886   28.9519    6.1339 N.am      11 UNK        -0.4279 
     65 CA         32.3004   27.7948    6.6041 C.3       11 UNK         0.1003 
     66 C          31.0657   28.1316    7.4943 C.2       11 UNK         0.5709 
     67 N          30.7591   29.3932    7.7704 N.am      11 UNK        -0.7358 
     68 O          30.4053   27.2267    7.9967 O.2       11 UNK        -0.4999 
     69 C69        31.9504   26.7918    5.4647 C.3       12 UNK        -0.0954 
     70 S70        33.4312   26.2281    4.5601 S.3       12 UNK        -0.2268 
     71 C71        33.4517   24.4439    4.9289 C.3       12 UNK         0.0203 
     72 H72        33.5868   28.5324   -4.0382 H         1 UNK         0.0888 
     73 H73        34.5737   27.9617   -2.6899 H         1 UNK         0.0888 
     74 H74        33.8416   26.8017   -3.8010 H         1 UNK         0.0888 
     75 H75        32.0251   25.8129   -2.9533 H         1 UNK         0.3017 
     76 H76        30.7115   26.7495   -0.6035 H         1 UNK         0.0873 
     77 H77        29.2047   24.6628   -2.1103 H         1 UNK         0.0745 
     78 H78        30.8737   24.2441   -1.9351 H         1 UNK         0.0745 
     79 H79        31.0810   22.3594    0.0030 H         1 UNK         0.0705 
     80 H80        32.1105   23.7690    0.1242 H         1 UNK         0.0705 
     81 H81        32.8788   24.5782    2.2519 H         1 UNK         0.1334 
     82 H82        31.7353   22.5380    5.8445 H         1 UNK         0.1417 
     83 H83        29.9168   21.4822    2.1047 H         1 UNK         0.1562 
     84 H84        30.1457   20.7941    5.8243 H         1 UNK         0.0748 
     85 H85        30.0819   19.8758    4.3420 H         1 UNK         0.0748 
     86 H86        28.8236   23.0874    5.9387 H         1 UNK         0.0940 
     87 H87        27.0852   22.9622    5.9444 H         1 UNK         0.0940 
     88 H88        28.7343   23.7698    3.4986 H         1 UNK         0.0703 
     89 H89        26.9289   23.6146    2.2964 H         1 UNK         0.3081 
     90 H90        24.8185   23.0131    1.7563 H         1 UNK         0.0719 
     91 H91        22.5655   24.0988    3.5275 H         1 UNK         0.0809 
     92 H92        22.3787   23.1262    2.0680 H         1 UNK         0.0809 
     93 H93        23.1173   22.4302    3.5004 H         1 UNK         0.0809 
     94 H94        23.3738   25.4574    1.6588 H         1 UNK         0.2990 
     95 H95        24.2816   26.6151   -0.6950 H         1 UNK         0.0690 
     96 H96        23.8710   28.8314    0.5361 H         1 UNK         0.0788 
     97 H97        24.5067   28.0862    1.9982 H         1 UNK         0.0788 
     98 H98        23.0412   27.4692    1.2522 H         1 UNK         0.0788 
     99 H99        26.9324   27.2630    0.2033 H         1 UNK         0.2993 
    100 H100       27.6005   29.1172   -2.7517 H         1 UNK         0.0949 
    101 H101       27.1286   30.9955   -1.1859 H         1 UNK         0.0767 
    102 H102       27.8775   30.1127    0.1391 H         1 UNK         0.0767 
    103 H103       28.8505   30.6479   -1.2296 H         1 UNK         0.0767 
    104 H104       28.7758   27.7996   -0.3286 H         1 UNK         0.3013 
    105 H105       27.7495   26.0065    2.6904 H         1 UNK         0.3121 
    106 H106       29.0226   27.8540    4.5779 H         1 UNK         0.0774 
    107 H107       26.5256   28.3349    4.7623 H         1 UNK         0.0815 
    108 H108       27.4234   29.6551    4.0246 H         1 UNK         0.0815 
    109 H109       26.4748   28.5757    3.0152 H         1 UNK         0.0815 
    110 H110       30.4648   29.1732    3.3733 H         1 UNK         0.2987 
    111 H111       30.5943   28.7324    0.4293 H         1 UNK         0.0949 
    112 H112       33.1065   28.5098    0.7863 H         1 UNK         0.0806 
    113 H113       32.8277   28.4805    2.5216 H         1 UNK         0.0806 
    114 H114       32.2058   27.1878    1.5082 H         1 UNK         0.0806 
    115 H115       32.1518   30.2469   -0.5531 H         1 UNK         0.3010 
    116 H116       31.3320   32.9133   -0.2631 H         1 UNK         0.0829 
    117 H117       32.2409   31.9855   -2.3552 H         1 UNK         0.0813 
    118 H118       33.2067   33.3712   -1.8701 H         1 UNK         0.0813 
    119 H119       33.8208   31.7427   -1.6144 H         1 UNK         0.0813 
    120 H120       31.5004   33.6292    1.8143 H         1 UNK         0.3038 
    121 H121       32.2296   34.6192    3.6374 H         1 UNK         0.0769 
    122 H122       34.8797   35.1430    2.1904 H         1 UNK         0.0811 
    123 H123       34.2889   35.9759    3.6199 H         1 UNK         0.0811 
    124 H124       33.4498   36.1698    2.0909 H         1 UNK         0.0811 
    125 H125       32.3532   31.7834    3.5791 H         1 UNK         0.3204 
    126 H126       34.2205   31.2749    5.7576 H         1 UNK         0.0748 
    127 H127       35.7576   30.8885    3.8703 H         1 UNK         0.0771 
    128 H128       35.2997   29.3167    4.4965 H         1 UNK         0.0771 
    129 H129       34.5654   29.9216    3.0171 H         1 UNK         0.0771 
    130 H130       34.0257   29.0023    6.5059 H         1 UNK         0.2980 
    131 H131       32.9730   27.2699    7.2835 H         1 UNK         0.0545 
    132 H132       29.9712   29.5905    8.3665 H         1 UNK         0.3459 
    133 H133       31.2825   30.1462    7.3547 H         1 UNK         0.3459 
    134 H134       31.4225   25.9225    5.8613 H         1 UNK         0.0616 
    135 H135       31.2735   27.2474    4.7436 H         1 UNK         0.0616 
    136 H136       33.3185   24.3029    6.0027 H         1 UNK         0.0634 
    137 H137       34.4418   24.0552    4.6884 H         1 UNK         0.0634 
@<TRIPOS>BOND
     1    1    2 1    
     2    1   72 1    
     3    1   73 1    
     4    1   74 1    
     5    2    3 2    
     6    2    4 am   BACKBONE|DICT|INTERRES
     7    4    5 1    
     8    4   75 1    
     9    5    6 1    
    10    5   35 1    
    11    5   76 1    
    12    6    7 1    
    13    6   77 1    
    14    6   78 1    
    15    7    8 1    
    16    8    9 1    
    17    8   79 1    
    18    8   80 1    
    19    9   10 ar   
    20    9   14 ar   
    21   10   11 ar   
    22   10   81 1    
    23   11   12 ar   
    24   11   71 1    
    25   12   13 ar   
    26   12   82 1    
    27   13   14 ar   
    28   13   15 1    
    29   14   83 1    
    30   15   16 1    
    31   15   84 1    
    32   15   85 1    
    33   16   17 1    
    34   17   18 1    
    35   17   86 1    
    36   17   87 1    
    37   18   19 1    
    38   18   37 1    
    39   18   88 1    
    40   19   20 am   BACKBONE|DICT|INTERRES
    41   19   89 1    
    42   20   21 2    
    43   20   22 1    
    44   22   23 1    
    45   22   24 1    
    46   22   90 1    
    47   23   91 1    
    48   23   92 1    
    49   23   93 1    
    50   24   25 am   BACKBONE|DICT|INTERRES
    51   24   94 1    
    52   25   26 2    
    53   25   27 1    
    54   27   28 1    
    55   27   29 1    
    56   27   95 1    
    57   28   96 1    
    58   28   97 1    
    59   28   98 1    
    60   29   30 am   BACKBONE|DICT|INTERRES
    61   29   99 1    
    62   30   31 2    
    63   30   32 1    
    64   32   33 1    
    65   32   34 1    
    66   32  100 1    
    67   33  101 1    
    68   33  102 1    
    69   33  103 1    
    70   34   35 am   BACKBONE|DICT|INTERRES
    71   34  104 1    
    72   35   36 2    
    73   37   38 2    
    74   37   39 am   BACKBONE|DICT|INTERRES
    75   39   40 1    
    76   39  105 1    
    77   40   41 1    
    78   40   42 1    
    79   40  106 1    
    80   41  107 1    
    81   41  108 1    
    82   41  109 1    
    83   42   43 2    
    84   42   44 am   BACKBONE|DICT|INTERRES
    85   44   45 1    
    86   44  110 1    
    87   45   46 1    
    88   45   47 1    
    89   45  111 1    
    90   46  112 1    
    91   46  113 1    
    92   46  114 1    
    93   47   48 2    
    94   47   49 am   BACKBONE|DICT|INTERRES
    95   49   50 1    
    96   49  115 1    
    97   50   51 1    
    98   50   52 1    
    99   50  116 1    
   100   51  117 1    
   101   51  118 1    
   102   51  119 1    
   103   52   53 2    
   104   52   54 am   BACKBONE|DICT|INTERRES
   105   54   55 1    
   106   54  120 1    
   107   55   56 1    
   108   55   57 1    
   109   55  121 1    
   110   56  122 1    
   111   56  123 1    
   112   56  124 1    
   113   57   58 2    
   114   57   59 am   BACKBONE|DICT|INTERRES
   115   59   60 1    
   116   59  125 1    
   117   60   61 1    
   118   60   62 1    
   119   60  126 1    
   120   61  127 1    
   121   61  128 1    
   122   61  129 1    
   123   62   63 2    
   124   62   64 am   BACKBONE|DICT|INTERRES
   125   64   65 1    
   126   64  130 1    
   127   65   66 1    
   128   65   69 1    
   129   65  131 1    
   130   66   67 am   BACKBONE|DICT|INTERRES
   131   66   68 2    
   132   67  132 1    
   133   67  133 1    
   134   69   70 1    
   135   69  134 1    
   136   69  135 1    
   137   70   71 1    
   138   71  136 1    
   139   71  137 1    
@<TRIPOS>SUBSTRUCTURE
     1 UNK         1 GROUP             0       ****    0 ROOT    
