@<TRIPOS>MOLECULE
3R136
137   139    1
SMALL
USER_CHARGES


@<TRIPOS>ATOM
      1 CA         29.3928   22.1696    5.6397 C.3       0 UNK        -0.1979 
      2 C          28.5450   22.1663    4.3761 C.2       0 UNK         0.4864 
      3 O          27.4372   21.6275    4.3815 O.2       0 UNK        -0.5359 
      4 N          29.0612   22.7590    3.2927 N.am      1 UNK        -0.4318 
      5 CA         28.3723   22.9216    2.0116 C.3       1 UNK         0.0824 
      6 C6         29.3532   23.2888    0.8684 C.3       12 UNK        -0.0944 
      7 S7         30.5045   21.9336    0.4689 S.3       12 UNK        -0.2672 
      8 C8         31.9934   22.3845    1.4293 C.3       12 UNK         0.0333 
      9 C9         32.7258   23.6544    0.9885 C.ar      12 UNK        -0.0807 
     10 C10        33.5911   24.2694    1.8997 C.ar      12 UNK        -0.0894 
     11 C11        34.3374   25.3933    1.5353 C.ar      12 UNK        -0.0804 
     12 C12        34.2081   25.9139    0.2453 C.ar      12 UNK        -0.0824 
     13 C13        33.3406   25.3206   -0.6779 C.ar      12 UNK        -0.0762 
     14 C14        32.6069   24.1900   -0.3019 C.ar      12 UNK        -0.0782 
     15 C15        33.2435   25.8607   -2.1004 C.3       12 UNK         0.0230 
     16 S16        32.7868   27.6233   -2.1672 S.3       12 UNK        -0.2608 
     17 C17        30.9987   27.5641   -1.8159 C.3       12 UNK        -0.0989 
     18 CA         30.4573   28.9700   -1.4480 C.3       5 UNK         0.0716 
     19 N          29.0326   29.1169   -1.7585 N.am      5 UNK        -0.4135 
     20 C          28.3054   30.2375   -1.6141 C.2       4 UNK         0.5031 
     21 O          28.7677   31.3148   -1.2327 O.2       4 UNK        -0.5229 
     22 CA         26.8012   30.1565   -1.9412 C.3       4 UNK         0.0329 
     23 CB         26.5221   30.7621   -3.3263 C.3       4 UNK        -0.2001 
     24 N          26.2374   28.8030   -1.8843 N.am      4 UNK        -0.4303 
     25 C          26.1788   28.0484   -0.7797 C.2       3 UNK         0.5044 
     26 O          26.5976   28.4189    0.3194 O.2       3 UNK        -0.5152 
     27 CA         25.5842   26.6442   -0.9483 C.3       3 UNK         0.0319 
     28 CB         26.4295   25.7842   -1.9086 C.3       3 UNK        -0.2001 
     29 N          25.5313   25.9843    0.3510 N.am      3 UNK        -0.4354 
     30 C          24.6133   25.1022    0.7534 C.2       2 UNK         0.4964 
     31 O          23.6568   24.7438    0.0636 O.2       2 UNK        -0.5047 
     32 CA         24.8442   24.4818    2.1445 C.3       2 UNK         0.0288 
     33 CB         23.6224   23.6958    2.6562 C.3       2 UNK        -0.2113 
     34 N          26.0076   23.5913    2.1215 N.am      2 UNK        -0.4145 
     35 C          27.2831   23.9992    2.1530 C.2       1 UNK         0.5006 
     36 O          27.6169   25.1789    2.2734 O.2       1 UNK        -0.5103 
     37 C          30.7391   29.3327    0.0238 C.2       5 UNK         0.5055 
     38 O          30.3271   28.5987    0.9257 O.2       5 UNK        -0.5220 
     39 N          31.3729   30.4989    0.2179 N.am      6 UNK        -0.4450 
     40 CA         31.6754   31.1469    1.4974 C.3       6 UNK         0.0367 
     41 CB         32.8366   30.4204    2.2036 C.3       6 UNK        -0.1929 
     42 C          30.4425   31.3283    2.4068 C.2       6 UNK         0.5070 
     43 O          30.5764   31.2080    3.6232 O.2       6 UNK        -0.5237 
     44 N          29.2733   31.6022    1.8015 N.am      7 UNK        -0.4739 
     45 CA         27.9727   31.8439    2.4434 C.3       7 UNK         0.0276 
     46 CB         27.9633   33.2415    3.0975 C.3       7 UNK        -0.1927 
     47 C          27.5799   30.7270    3.4320 C.2       7 UNK         0.5013 
     48 O          27.5621   30.9545    4.6436 O.2       7 UNK        -0.5193 
     49 N          27.3068   29.5338    2.8866 N.am      8 UNK        -0.4253 
     50 CA         27.0578   28.2762    3.5985 C.3       8 UNK         0.0242 
     51 CB         25.7965   28.3520    4.4866 C.3       8 UNK        -0.2000 
     52 C          28.3094   27.7620    4.3359 C.2       8 UNK         0.4948 
     53 O          28.2100   27.3225    5.4836 O.2       8 UNK        -0.5275 
     54 N          29.4583   27.8126    3.6437 N.am      9 UNK        -0.4246 
     55 CA         30.7607   27.2760    4.0441 C.3       9 UNK         0.0261 
     56 CB         30.7332   25.7343    4.0427 C.3       9 UNK        -0.1959 
     57 C          31.3243   27.8648    5.3511 C.2       9 UNK         0.5033 
     58 O          31.9035   27.1271    6.1528 O.2       9 UNK        -0.5390 
     59 N          31.2216   29.1896    5.5339 N.am      10 UNK        -0.4215 
     60 CA         31.8892   29.9254    6.6142 C.3       10 UNK         0.0240 
     61 CB         31.0831   31.1956    6.9442 C.3       10 UNK        -0.1982 
     62 C          33.3514   30.2227    6.2235 C.2       10 UNK         0.4970 
     63 O          33.7552   31.3841    6.1453 O.2       10 UNK        -0.4916 
     64 N          34.1019   29.1531    5.9377 N.am      11 UNK        -0.4279 
     65 CA         35.4585   29.1768    5.3700 C.3       11 UNK         0.1003 
     66 C          36.5846   29.5375    6.3815 C.2       11 UNK         0.5709 
     67 N          36.3148   29.6247    7.6787 N.am      11 UNK        -0.7358 
     68 O          37.7258   29.7511    5.9788 O.2       11 UNK        -0.4999 
     69 C69        35.7772   27.8543    4.6191 C.3       12 UNK        -0.0954 
     70 S70        34.5244   27.4450    3.3582 S.3       12 UNK        -0.2268 
     71 C71        35.2982   26.0304    2.5284 C.3       12 UNK         0.0203 
     72 H72        29.5683   21.1482    5.9765 H         1 UNK         0.0888 
     73 H73        30.3608   22.6450    5.4817 H         1 UNK         0.0888 
     74 H74        28.8771   22.7075    6.4348 H         1 UNK         0.0888 
     75 H75        29.9633   23.2038    3.3560 H         1 UNK         0.3017 
     76 H76        27.8932   21.9739    1.7553 H         1 UNK         0.0873 
     77 H77        29.9138   24.1960    1.0991 H         1 UNK         0.0745 
     78 H78        28.7988   23.5098   -0.0461 H         1 UNK         0.0745 
     79 H79        32.6968   21.5535    1.3621 H         1 UNK         0.0705 
     80 H80        31.7198   22.4619    2.4817 H         1 UNK         0.0705 
     81 H81        33.6997   23.8609    2.8954 H         1 UNK         0.1334 
     82 H82        34.7874   26.7806   -0.0430 H         1 UNK         0.1417 
     83 H83        31.9603   23.7168   -1.0273 H         1 UNK         0.1562 
     84 H84        32.5317   25.2853   -2.6945 H         1 UNK         0.0748 
     85 H85        34.2138   25.7360   -2.5829 H         1 UNK         0.0748 
     86 H86        30.7896   26.8302   -1.0339 H         1 UNK         0.0940 
     87 H87        30.5101   27.1919   -2.7178 H         1 UNK         0.0940 
     88 H88        30.9625   29.6995   -2.0855 H         1 UNK         0.0703 
     89 H89        28.5513   28.2816   -2.0521 H         1 UNK         0.3081 
     90 H90        26.2807   30.7605   -1.1948 H         1 UNK         0.0719 
     91 H91        26.9963   30.1868   -4.1225 H         1 UNK         0.0809 
     92 H92        25.4527   30.8064   -3.5331 H         1 UNK         0.0809 
     93 H93        26.9035   31.7824   -3.3906 H         1 UNK         0.0809 
     94 H94        25.8667   28.4313   -2.7475 H         1 UNK         0.2990 
     95 H95        24.5736   26.7573   -1.3464 H         1 UNK         0.0690 
     96 H96        26.4654   26.2146   -2.9098 H         1 UNK         0.0788 
     97 H97        26.0125   24.7820   -2.0100 H         1 UNK         0.0788 
     98 H98        27.4569   25.6806   -1.5563 H         1 UNK         0.0788 
     99 H99        26.2860   26.2286    0.9851 H         1 UNK         0.2993 
    100 H100       25.0317   25.2990    2.8453 H         1 UNK         0.0949 
    101 H101       23.7909   23.3161    3.6643 H         1 UNK         0.0767 
    102 H102       22.7375   24.3326    2.6945 H         1 UNK         0.0767 
    103 H103       23.3866   22.8466    2.0135 H         1 UNK         0.0767 
    104 H104       25.8151   22.6041    2.0285 H         1 UNK         0.3013 
    105 H105       31.6126   31.0396   -0.6020 H         1 UNK         0.3121 
    106 H106       32.0173   32.1547    1.2575 H         1 UNK         0.0774 
    107 H107       32.5463   29.4166    2.5051 H         1 UNK         0.0815 
    108 H108       33.7087   30.3346    1.5557 H         1 UNK         0.0815 
    109 H109       33.1520   30.9530    3.1017 H         1 UNK         0.0815 
    110 H110       29.2660   31.6236    0.7861 H         1 UNK         0.2987 
    111 H111       27.2229   31.8440    1.6502 H         1 UNK         0.0949 
    112 H112       28.7057   33.3217    3.8926 H         1 UNK         0.0806 
    113 H113       28.1704   34.0228    2.3663 H         1 UNK         0.0806 
    114 H114       26.9897   33.4592    3.5384 H         1 UNK         0.0806 
    115 H115       27.3206   29.4376    1.8747 H         1 UNK         0.3010 
    116 H116       26.8480   27.5420    2.8226 H         1 UNK         0.0829 
    117 H117       24.9343   28.7055    3.9215 H         1 UNK         0.0813 
    118 H118       25.5437   27.3674    4.8818 H         1 UNK         0.0813 
    119 H119       25.9365   29.0150    5.3404 H         1 UNK         0.0813 
    120 H120       29.4413   28.2005    2.7041 H         1 UNK         0.3038 
    121 H121       31.4545   27.5741    3.2591 H         1 UNK         0.0769 
    122 H122       30.0640   25.3421    4.8090 H         1 UNK         0.0811 
    123 H123       31.7267   25.3235    4.2264 H         1 UNK         0.0811 
    124 H124       30.4027   25.3590    3.0759 H         1 UNK         0.0811 
    125 H125       30.7965   29.7661    4.8082 H         1 UNK         0.3204 
    126 H126       31.9087   29.3088    7.5152 H         1 UNK         0.0748 
    127 H127       31.5162   31.7212    7.7960 H         1 UNK         0.0771 
    128 H128       31.0628   31.8943    6.1075 H         1 UNK         0.0771 
    129 H129       30.0512   30.9542    7.2003 H         1 UNK         0.0771 
    130 H130       33.6723   28.2391    6.0255 H         1 UNK         0.2980 
    131 H131       35.4740   29.9757    4.6260 H         1 UNK         0.0545 
    132 H132       37.0524   29.8639    8.3225 H         1 UNK         0.3459 
    133 H133       35.3815   29.4560    8.0173 H         1 UNK         0.3459 
    134 H134       36.7475   27.9209    4.1234 H         1 UNK         0.0616 
    135 H135       35.8419   27.0217    5.3219 H         1 UNK         0.0616 
    136 H136       36.2032   26.3611    2.0166 H         1 UNK         0.0634 
    137 H137       35.6116   25.2998    3.2758 H         1 UNK         0.0634 
@<TRIPOS>BOND
     1    1    2 1    
     2    1   72 1    
     3    1   73 1    
     4    1   74 1    
     5    2    3 2    
     6    2    4 am   BACKBONE|DICT|INTERRES
     7    4    5 1    
     8    4   75 1    
     9    5    6 1    
    10    5   35 1    
    11    5   76 1    
    12    6    7 1    
    13    6   77 1    
    14    6   78 1    
    15    7    8 1    
    16    8    9 1    
    17    8   79 1    
    18    8   80 1    
    19    9   10 ar   
    20    9   14 ar   
    21   10   11 ar   
    22   10   81 1    
    23   11   12 ar   
    24   11   71 1    
    25   12   13 ar   
    26   12   82 1    
    27   13   14 ar   
    28   13   15 1    
    29   14   83 1    
    30   15   16 1    
    31   15   84 1    
    32   15   85 1    
    33   16   17 1    
    34   17   18 1    
    35   17   86 1    
    36   17   87 1    
    37   18   19 1    
    38   18   37 1    
    39   18   88 1    
    40   19   20 am   BACKBONE|DICT|INTERRES
    41   19   89 1    
    42   20   21 2    
    43   20   22 1    
    44   22   23 1    
    45   22   24 1    
    46   22   90 1    
    47   23   91 1    
    48   23   92 1    
    49   23   93 1    
    50   24   25 am   BACKBONE|DICT|INTERRES
    51   24   94 1    
    52   25   26 2    
    53   25   27 1    
    54   27   28 1    
    55   27   29 1    
    56   27   95 1    
    57   28   96 1    
    58   28   97 1    
    59   28   98 1    
    60   29   30 am   BACKBONE|DICT|INTERRES
    61   29   99 1    
    62   30   31 2    
    63   30   32 1    
    64   32   33 1    
    65   32   34 1    
    66   32  100 1    
    67   33  101 1    
    68   33  102 1    
    69   33  103 1    
    70   34   35 am   BACKBONE|DICT|INTERRES
    71   34  104 1    
    72   35   36 2    
    73   37   38 2    
    74   37   39 am   BACKBONE|DICT|INTERRES
    75   39   40 1    
    76   39  105 1    
    77   40   41 1    
    78   40   42 1    
    79   40  106 1    
    80   41  107 1    
    81   41  108 1    
    82   41  109 1    
    83   42   43 2    
    84   42   44 am   BACKBONE|DICT|INTERRES
    85   44   45 1    
    86   44  110 1    
    87   45   46 1    
    88   45   47 1    
    89   45  111 1    
    90   46  112 1    
    91   46  113 1    
    92   46  114 1    
    93   47   48 2    
    94   47   49 am   BACKBONE|DICT|INTERRES
    95   49   50 1    
    96   49  115 1    
    97   50   51 1    
    98   50   52 1    
    99   50  116 1    
   100   51  117 1    
   101   51  118 1    
   102   51  119 1    
   103   52   53 2    
   104   52   54 am   BACKBONE|DICT|INTERRES
   105   54   55 1    
   106   54  120 1    
   107   55   56 1    
   108   55   57 1    
   109   55  121 1    
   110   56  122 1    
   111   56  123 1    
   112   56  124 1    
   113   57   58 2    
   114   57   59 am   BACKBONE|DICT|INTERRES
   115   59   60 1    
   116   59  125 1    
   117   60   61 1    
   118   60   62 1    
   119   60  126 1    
   120   61  127 1    
   121   61  128 1    
   122   61  129 1    
   123   62   63 2    
   124   62   64 am   BACKBONE|DICT|INTERRES
   125   64   65 1    
   126   64  130 1    
   127   65   66 1    
   128   65   69 1    
   129   65  131 1    
   130   66   67 am   BACKBONE|DICT|INTERRES
   131   66   68 2    
   132   67  132 1    
   133   67  133 1    
   134   69   70 1    
   135   69  134 1    
   136   69  135 1    
   137   70   71 1    
   138   71  136 1    
   139   71  137 1    
@<TRIPOS>SUBSTRUCTURE
     1 UNK         1 GROUP             0       ****    0 ROOT    
