@<TRIPOS>MOLECULE
3R136
137   139    1
SMALL
USER_CHARGES


@<TRIPOS>ATOM
      1 CA         26.6972   20.7236   -3.5407 C.3       0 UNK        -0.1979 
      2 C          27.1409   21.9421   -2.7443 C.2       0 UNK         0.4864 
      3 O          27.4483   22.9787   -3.3346 O.2       0 UNK        -0.5359 
      4 N          27.1832   21.8224   -1.4109 N.am      1 UNK        -0.4318 
      5 CA         27.5200   22.9061   -0.4841 C.3       1 UNK         0.0824 
      6 C6         27.8405   22.3482    0.9265 C.3       12 UNK        -0.0944 
      7 S7         28.7776   23.5404    1.9370 S.3       12 UNK        -0.2672 
      8 C8         29.7647   22.4449    3.0040 C.3       12 UNK         0.0333 
      9 C9         31.0763   23.1196    3.3632 C.ar      12 UNK        -0.0807 
     10 C10        31.2883   23.6623    4.6346 C.ar      12 UNK        -0.0894 
     11 C11        32.4923   24.3094    4.9377 C.ar      12 UNK        -0.0804 
     12 C12        33.4666   24.4399    3.9424 C.ar      12 UNK        -0.0824 
     13 C13        33.2468   23.9322    2.6579 C.ar      12 UNK        -0.0762 
     14 C14        32.0718   23.2287    2.3910 C.ar      12 UNK        -0.0782 
     15 C15        34.2548   24.1869    1.5472 C.3       12 UNK         0.0230 
     16 S16        34.4322   25.9702    1.2033 S.3       12 UNK        -0.2608 
     17 C17        33.1096   26.3879    0.0050 C.3       12 UNK        -0.0989 
     18 CA         31.6572   25.9126    0.3302 C.3       5 UNK         0.0716 
     19 N          31.2102   26.2047    1.6935 N.am      5 UNK        -0.4135 
     20 C          31.0600   27.4205    2.2259 C.2       4 UNK         0.5031 
     21 O          31.3791   28.4626    1.6523 O.2       4 UNK        -0.5229 
     22 CA         30.3556   27.4666    3.5832 C.3       4 UNK         0.0329 
     23 CB         30.6105   28.7828    4.3291 C.3       4 UNK        -0.2001 
     24 N          28.9256   27.3404    3.3380 N.am      4 UNK        -0.4303 
     25 C          28.0897   26.5262    3.9933 C.2       3 UNK         0.5044 
     26 O          28.4246   25.7832    4.9156 O.2       3 UNK        -0.5152 
     27 CA         26.6301   26.5333    3.5242 C.3       3 UNK         0.0319 
     28 CB         25.9051   27.7671    4.0988 C.3       3 UNK        -0.2001 
     29 N          26.5922   26.4885    2.0605 N.am      3 UNK        -0.4354 
     30 C          25.5131   26.5008    1.2675 C.2       2 UNK         0.4964 
     31 O          24.3514   26.5981    1.6632 O.2       2 UNK        -0.5047 
     32 CA         25.7867   26.3322   -0.2352 C.3       2 UNK         0.0288 
     33 CB         26.3461   27.6285   -0.8406 C.3       2 UNK        -0.2113 
     34 N          26.7217   25.2312   -0.4739 N.am      2 UNK        -0.4145 
     35 C          26.3754   23.9383   -0.4266 C.2       1 UNK         0.5006 
     36 O          25.2118   23.5428   -0.3072 O.2       1 UNK        -0.5103 
     37 C          30.5742   26.4333   -0.6424 C.2       5 UNK         0.5055 
     38 O          29.4254   25.9948   -0.5432 O.2       5 UNK        -0.5220 
     39 N          30.9298   27.3736   -1.5259 N.am      6 UNK        -0.4450 
     40 CA         30.0012   28.0748   -2.4140 C.3       6 UNK         0.0367 
     41 CB         30.7292   28.3891   -3.7327 C.3       6 UNK        -0.1929 
     42 C          29.4253   29.3645   -1.7926 C.2       6 UNK         0.5070 
     43 O          28.5830   29.9964   -2.4318 O.2       6 UNK        -0.5237 
     44 N          29.8823   29.7571   -0.5945 N.am      7 UNK        -0.4739 
     45 CA         29.4461   30.9670    0.1047 C.3       7 UNK         0.0276 
     46 CB         30.6774   31.6497    0.7263 C.3       7 UNK        -0.1927 
     47 C          28.4077   30.6395    1.1889 C.2       7 UNK         0.5013 
     48 O          28.2473   29.4800    1.5799 O.2       7 UNK        -0.5193 
     49 N          27.7309   31.6899    1.6700 N.am      8 UNK        -0.4253 
     50 CA         26.7392   31.6191    2.7460 C.3       8 UNK         0.0242 
     51 CB         25.8114   32.8417    2.6519 C.3       8 UNK        -0.2000 
     52 C          27.3634   31.5328    4.1523 C.2       8 UNK         0.4948 
     53 O          26.6850   31.0880    5.0786 O.2       8 UNK        -0.5275 
     54 N          28.6187   31.9727    4.3006 N.am      9 UNK        -0.4246 
     55 CA         29.3768   32.0082    5.5488 C.3       9 UNK         0.0261 
     56 CB         28.9076   33.1923    6.4181 C.3       9 UNK        -0.1959 
     57 C          30.8698   32.1289    5.2143 C.2       9 UNK         0.5033 
     58 O          31.2036   32.4719    4.0773 O.2       9 UNK        -0.5390 
     59 N          31.7172   31.8674    6.2210 N.am      10 UNK        -0.4215 
     60 CA         33.1858   31.8989    6.2019 C.3       10 UNK         0.0240 
     61 CB         33.7202   33.3000    5.8317 C.3       10 UNK        -0.1982 
     62 C          33.7854   30.7848    5.3236 C.2       10 UNK         0.4970 
     63 O          34.0970   31.0140    4.1542 O.2       10 UNK        -0.4916 
     64 N          33.9437   29.5960    5.9222 N.am      11 UNK        -0.4279 
     65 CA         34.5706   28.4069    5.3129 C.3       11 UNK         0.1003 
     66 C          36.0740   28.5744    4.9364 C.2       11 UNK         0.5709 
     67 N          36.7944   29.5499    5.4784 N.am      11 UNK        -0.7358 
     68 O          36.5967   27.7982    4.1408 O.2       11 UNK        -0.4999 
     69 C69        34.3907   27.1547    6.2134 C.3       12 UNK        -0.0954 
     70 S70        32.6465   26.6667    6.4367 S.3       12 UNK        -0.2268 
     71 C71        32.7406   24.8476    6.3427 C.3       12 UNK         0.0203 
     72 H72        25.8052   20.9593   -4.1205 H         1 UNK         0.0888 
     73 H73        27.4832   20.4204   -4.2319 H         1 UNK         0.0888 
     74 H74        26.4678   19.8756   -2.8956 H         1 UNK         0.0888 
     75 H75        26.8863   20.9571   -0.9831 H         1 UNK         0.3017 
     76 H76        28.4152   23.3962   -0.8750 H         1 UNK         0.0873 
     77 H77        26.9356   22.0521    1.4612 H         1 UNK         0.0745 
     78 H78        28.4407   21.4428    0.8265 H         1 UNK         0.0745 
     79 H79        29.1899   22.1982    3.8979 H         1 UNK         0.0705 
     80 H80        29.9786   21.5020    2.4994 H         1 UNK         0.0705 
     81 H81        30.5153   23.5815    5.3871 H         1 UNK         0.1334 
     82 H82        34.3891   24.9618    4.1496 H         1 UNK         0.1417 
     83 H83        31.8994   22.8159    1.4060 H         1 UNK         0.1562 
     84 H84        33.9864   23.6616    0.6293 H         1 UNK         0.0748 
     85 H85        35.2233   23.7918    1.8566 H         1 UNK         0.0748 
     86 H86        33.4156   25.9959   -0.9668 H         1 UNK         0.0940 
     87 H87        33.1448   27.4748   -0.0850 H         1 UNK         0.0940 
     88 H88        31.6350   24.8300    0.2188 H         1 UNK         0.0703 
     89 H89        30.8895   25.4051    2.2230 H         1 UNK         0.3081 
     90 H90        30.7251   26.6355    4.1862 H         1 UNK         0.0719 
     91 H91        31.6779   28.9510    4.4541 H         1 UNK         0.0809 
     92 H92        30.2092   29.6327    3.7773 H         1 UNK         0.0809 
     93 H93        30.1576   28.7719    5.3201 H         1 UNK         0.0809 
     94 H94        28.5591   27.9683    2.6222 H         1 UNK         0.2990 
     95 H95        26.1494   25.6287    3.9013 H         1 UNK         0.0690 
     96 H96        24.8279   27.7189    3.9448 H         1 UNK         0.0788 
     97 H97        26.2700   28.6853    3.6426 H         1 UNK         0.0788 
     98 H98        26.0663   27.8527    5.1744 H         1 UNK         0.0788 
     99 H99        27.4924   26.3621    1.6170 H         1 UNK         0.2993 
    100 H100       24.8389   26.1076   -0.7296 H         1 UNK         0.0949 
    101 H101       26.4917   27.5347   -1.9168 H         1 UNK         0.0767 
    102 H102       25.6661   28.4650   -0.6744 H         1 UNK         0.0767 
    103 H103       27.3043   27.8960   -0.3959 H         1 UNK         0.0767 
    104 H104       27.7089   25.4753   -0.5599 H         1 UNK         0.3013 
    105 H105       31.8839   27.7035   -1.5275 H         1 UNK         0.3121 
    106 H106       29.1547   27.4241   -2.6446 H         1 UNK         0.0774 
    107 H107       31.5742   29.0611   -3.5782 H         1 UNK         0.0815 
    108 H108       31.1028   27.4809   -4.2059 H         1 UNK         0.0815 
    109 H109       30.0579   28.8693   -4.4461 H         1 UNK         0.0815 
    110 H110       30.4971   29.1499   -0.0614 H         1 UNK         0.2987 
    111 H111       28.9912   31.6631   -0.6035 H         1 UNK         0.0949 
    112 H112       31.4474   31.8376   -0.0218 H         1 UNK         0.0806 
    113 H113       30.4176   32.6127    1.1670 H         1 UNK         0.0806 
    114 H114       31.1229   31.0465    1.5183 H         1 UNK         0.0806 
    115 H115       27.9181   32.6067    1.2896 H         1 UNK         0.3010 
    116 H116       26.1304   30.7258    2.5957 H         1 UNK         0.0829 
    117 H117       26.3571   33.7763    2.7882 H         1 UNK         0.0813 
    118 H118       25.0368   32.8028    3.4193 H         1 UNK         0.0813 
    119 H119       25.3058   32.8838    1.6869 H         1 UNK         0.0813 
    120 H120       29.1487   32.2809    3.4944 H         1 UNK         0.3038 
    121 H121       29.2175   31.0702    6.0850 H         1 UNK         0.0769 
    122 H122       27.8530   33.1034    6.6792 H         1 UNK         0.0811 
    123 H123       29.0445   34.1446    5.9042 H         1 UNK         0.0811 
    124 H124       29.4642   33.2436    7.3544 H         1 UNK         0.0811 
    125 H125       31.3125   31.5884    7.1045 H         1 UNK         0.3204 
    126 H126       33.5051   31.7064    7.2276 H         1 UNK         0.0748 
    127 H127       33.4664   33.5829    4.8097 H         1 UNK         0.0771 
    128 H128       33.3220   34.0648    6.4985 H         1 UNK         0.0771 
    129 H129       34.8074   33.3329    5.9122 H         1 UNK         0.0771 
    130 H130       33.6503   29.4865    6.8815 H         1 UNK         0.2980 
    131 H131       34.0501   28.2185    4.3716 H         1 UNK         0.0545 
    132 H132       37.7649   29.6442    5.2238 H         1 UNK         0.3459 
    133 H133       36.3814   30.1889    6.1376 H         1 UNK         0.3459 
    134 H134       34.8198   27.3349    7.2006 H         1 UNK         0.0616 
    135 H135       34.9432   26.3081    5.8061 H         1 UNK         0.0616 
    136 H136       33.7083   24.5010    6.7077 H         1 UNK         0.0634 
    137 H137       32.0009   24.4386    7.0325 H         1 UNK         0.0634 
@<TRIPOS>BOND
     1    1    2 1    
     2    1   72 1    
     3    1   73 1    
     4    1   74 1    
     5    2    3 2    
     6    2    4 am   BACKBONE|DICT|INTERRES
     7    4    5 1    
     8    4   75 1    
     9    5    6 1    
    10    5   35 1    
    11    5   76 1    
    12    6    7 1    
    13    6   77 1    
    14    6   78 1    
    15    7    8 1    
    16    8    9 1    
    17    8   79 1    
    18    8   80 1    
    19    9   10 ar   
    20    9   14 ar   
    21   10   11 ar   
    22   10   81 1    
    23   11   12 ar   
    24   11   71 1    
    25   12   13 ar   
    26   12   82 1    
    27   13   14 ar   
    28   13   15 1    
    29   14   83 1    
    30   15   16 1    
    31   15   84 1    
    32   15   85 1    
    33   16   17 1    
    34   17   18 1    
    35   17   86 1    
    36   17   87 1    
    37   18   19 1    
    38   18   37 1    
    39   18   88 1    
    40   19   20 am   BACKBONE|DICT|INTERRES
    41   19   89 1    
    42   20   21 2    
    43   20   22 1    
    44   22   23 1    
    45   22   24 1    
    46   22   90 1    
    47   23   91 1    
    48   23   92 1    
    49   23   93 1    
    50   24   25 am   BACKBONE|DICT|INTERRES
    51   24   94 1    
    52   25   26 2    
    53   25   27 1    
    54   27   28 1    
    55   27   29 1    
    56   27   95 1    
    57   28   96 1    
    58   28   97 1    
    59   28   98 1    
    60   29   30 am   BACKBONE|DICT|INTERRES
    61   29   99 1    
    62   30   31 2    
    63   30   32 1    
    64   32   33 1    
    65   32   34 1    
    66   32  100 1    
    67   33  101 1    
    68   33  102 1    
    69   33  103 1    
    70   34   35 am   BACKBONE|DICT|INTERRES
    71   34  104 1    
    72   35   36 2    
    73   37   38 2    
    74   37   39 am   BACKBONE|DICT|INTERRES
    75   39   40 1    
    76   39  105 1    
    77   40   41 1    
    78   40   42 1    
    79   40  106 1    
    80   41  107 1    
    81   41  108 1    
    82   41  109 1    
    83   42   43 2    
    84   42   44 am   BACKBONE|DICT|INTERRES
    85   44   45 1    
    86   44  110 1    
    87   45   46 1    
    88   45   47 1    
    89   45  111 1    
    90   46  112 1    
    91   46  113 1    
    92   46  114 1    
    93   47   48 2    
    94   47   49 am   BACKBONE|DICT|INTERRES
    95   49   50 1    
    96   49  115 1    
    97   50   51 1    
    98   50   52 1    
    99   50  116 1    
   100   51  117 1    
   101   51  118 1    
   102   51  119 1    
   103   52   53 2    
   104   52   54 am   BACKBONE|DICT|INTERRES
   105   54   55 1    
   106   54  120 1    
   107   55   56 1    
   108   55   57 1    
   109   55  121 1    
   110   56  122 1    
   111   56  123 1    
   112   56  124 1    
   113   57   58 2    
   114   57   59 am   BACKBONE|DICT|INTERRES
   115   59   60 1    
   116   59  125 1    
   117   60   61 1    
   118   60   62 1    
   119   60  126 1    
   120   61  127 1    
   121   61  128 1    
   122   61  129 1    
   123   62   63 2    
   124   62   64 am   BACKBONE|DICT|INTERRES
   125   64   65 1    
   126   64  130 1    
   127   65   66 1    
   128   65   69 1    
   129   65  131 1    
   130   66   67 am   BACKBONE|DICT|INTERRES
   131   66   68 2    
   132   67  132 1    
   133   67  133 1    
   134   69   70 1    
   135   69  134 1    
   136   69  135 1    
   137   70   71 1    
   138   71  136 1    
   139   71  137 1    
@<TRIPOS>SUBSTRUCTURE
     1 UNK         1 GROUP             0       ****    0 ROOT    
