@<TRIPOS>MOLECULE
3R136
137   139    1
SMALL
USER_CHARGES


@<TRIPOS>ATOM
      1 CA         24.5871   23.7585    4.5557 C.3       0 UNK        -0.1979 
      2 C          25.5283   23.7071    3.3619 C.2       0 UNK         0.4864 
      3 O          25.4861   24.6034    2.5169 O.2       0 UNK        -0.5359 
      4 N          26.3717   22.6652    3.2881 N.am      1 UNK        -0.4318 
      5 CA         27.3616   22.4194    2.2297 C.3       1 UNK         0.0824 
      6 C6         28.5242   23.4455    2.2490 C.3       12 UNK        -0.0944 
      7 S7         29.5405   23.3746    3.7607 S.3       12 UNK        -0.2672 
      8 C8         31.1440   22.8284    3.0901 C.3       12 UNK         0.0333 
      9 C9         31.9140   23.9479    2.3945 C.ar      12 UNK        -0.0807 
     10 C10        32.7459   24.7898    3.1415 C.ar      12 UNK        -0.0894 
     11 C11        33.5424   25.7493    2.5075 C.ar      12 UNK        -0.0804 
     12 C12        33.4862   25.8747    1.1169 C.ar      12 UNK        -0.0824 
     13 C13        32.6468   25.0559    0.3567 C.ar      12 UNK        -0.0762 
     14 C14        31.8619   24.0938    1.0019 C.ar      12 UNK        -0.0782 
     15 C15        32.6719   25.1534   -1.1644 C.3       12 UNK         0.0230 
     16 S16        32.1913   26.8032   -1.7799 S.3       12 UNK        -0.2608 
     17 C17        30.4473   26.5653   -2.2564 C.3       12 UNK        -0.0989 
     18 CA         29.4777   27.4093   -1.3968 C.3       5 UNK         0.0716 
     19 N          28.1688   27.5276   -2.0224 N.am      5 UNK        -0.4135 
     20 C          27.6655   28.6167   -2.6112 C.2       4 UNK         0.5031 
     21 O          28.3131   29.6389   -2.8399 O.2       4 UNK        -0.5229 
     22 CA         26.1756   28.5631   -2.9996 C.3       4 UNK         0.0329 
     23 CB         26.0205   28.2157   -4.4888 C.3       4 UNK        -0.2001 
     24 N          25.4125   27.5984   -2.2014 N.am      4 UNK        -0.4303 
     25 C          25.0954   27.7339   -0.9071 C.2       3 UNK         0.5044 
     26 O          25.3362   28.7459   -0.2491 O.2       3 UNK        -0.5152 
     27 CA         24.4283   26.5274   -0.2202 C.3       3 UNK         0.0319 
     28 CB         22.9515   26.3819   -0.6362 C.3       3 UNK        -0.2001 
     29 N          25.1699   25.2660   -0.3752 N.am      3 UNK        -0.4354 
     30 C          25.4068   24.5569   -1.4927 C.2       2 UNK         0.4964 
     31 O          24.9613   24.8675   -2.5987 O.2       2 UNK        -0.5047 
     32 CA         26.3248   23.3247   -1.3901 C.3       2 UNK         0.0288 
     33 CB         27.4333   23.3745   -2.4581 C.3       2 UNK        -0.2113 
     34 N          26.9561   23.2252   -0.0742 N.am      2 UNK        -0.4145 
     35 C          26.6598   22.3056    0.8557 C.2       1 UNK         0.5006 
     36 O          25.8518   21.3908    0.6784 O.2       1 UNK        -0.5103 
     37 C          29.2033   26.7647   -0.0352 C.2       5 UNK         0.5055 
     38 O          28.5501   25.7163    0.0018 O.2       5 UNK        -0.5220 
     39 N          29.6631   27.4073    1.0417 N.am      6 UNK        -0.4450 
     40 CA         29.4675   26.9782    2.4192 C.3       6 UNK         0.0367 
     41 CB         28.0006   27.1940    2.8506 C.3       6 UNK        -0.1929 
     42 C          30.4068   27.7627    3.3312 C.2       6 UNK         0.5070 
     43 O          30.8568   28.8478    2.9563 O.2       6 UNK        -0.5237 
     44 N          30.6145   27.2358    4.5467 N.am      7 UNK        -0.4739 
     45 CA         31.4323   27.8273    5.6153 C.3       7 UNK         0.0276 
     46 CB         31.4321   26.8861    6.8290 C.3       7 UNK        -0.1927 
     47 C          31.0122   29.2496    6.0324 C.2       7 UNK         0.5013 
     48 O          31.8513   30.0075    6.5222 O.2       7 UNK        -0.5193 
     49 N          29.7450   29.6030    5.7672 N.am      8 UNK        -0.4253 
     50 CA         29.1627   30.9434    5.8834 C.3       8 UNK         0.0242 
     51 CB         27.6679   30.8681    5.5317 C.3       8 UNK        -0.2000 
     52 C          29.8613   32.0216    5.0288 C.2       8 UNK         0.4948 
     53 O          29.7224   33.2046    5.3391 O.2       8 UNK        -0.5275 
     54 N          30.6402   31.6132    4.0136 N.am      9 UNK        -0.4246 
     55 CA         31.5536   32.4707    3.2484 C.3       9 UNK         0.0261 
     56 CB         31.9120   31.7608    1.9306 C.3       9 UNK        -0.1959 
     57 C          32.8314   32.8716    4.0229 C.2       9 UNK         0.5033 
     58 O          33.7083   33.5025    3.4319 O.2       9 UNK        -0.5390 
     59 N          32.9249   32.4897    5.3067 N.am      10 UNK        -0.4215 
     60 CA         34.0201   32.6965    6.2626 C.3       10 UNK         0.0240 
     61 CB         34.4735   34.1705    6.3405 C.3       10 UNK        -0.1982 
     62 C          35.1911   31.7151    6.0828 C.2       10 UNK         0.4970 
     63 O          36.2139   31.8755    6.7508 O.2       10 UNK        -0.4916 
     64 N          35.0163   30.6972    5.2306 N.am      11 UNK        -0.4279 
     65 CA         35.9422   29.5674    5.0788 C.3       11 UNK         0.1003 
     66 C          35.7796   28.4593    6.1606 C.2       11 UNK         0.5709 
     67 N          34.7573   28.4973    7.0089 N.am      11 UNK        -0.7358 
     68 O          36.6073   27.5551    6.2400 O.2       11 UNK        -0.4999 
     69 C69        35.9290   29.0039    3.6343 C.3       12 UNK        -0.0954 
     70 S70        34.3094   28.3761    3.0691 S.3       12 UNK        -0.2268 
     71 C71        34.5356   26.5832    3.3063 C.3       12 UNK         0.0203 
     72 H72        23.5518   23.7526    4.2161 H         1 UNK         0.0888 
     73 H73        24.7305   22.9112    5.2258 H         1 UNK         0.0888 
     74 H74        24.7548   24.6730    5.1238 H         1 UNK         0.0888 
     75 H75        26.3339   21.9556    4.0060 H         1 UNK         0.3017 
     76 H76        27.7873   21.4336    2.4237 H         1 UNK         0.0873 
     77 H77        28.1188   24.4508    2.1718 H         1 UNK         0.0745 
     78 H78        29.1734   23.3069    1.3855 H         1 UNK         0.0745 
     79 H79        30.9897   21.9886    2.4107 H         1 UNK         0.0705 
     80 H80        31.7439   22.4365    3.9129 H         1 UNK         0.0705 
     81 H81        32.8026   24.6684    4.2147 H         1 UNK         0.1334 
     82 H82        34.1187   26.5982    0.6203 H         1 UNK         0.1417 
     83 H83        31.2422   23.4317    0.4136 H         1 UNK         0.1562 
     84 H84        32.0530   24.3799   -1.6208 H         1 UNK         0.0748 
     85 H85        33.6901   24.9513   -1.4999 H         1 UNK         0.0748 
     86 H86        30.1770   25.5081   -2.2459 H         1 UNK         0.0940 
     87 H87        30.3677   26.8743   -3.3000 H         1 UNK         0.0940 
     88 H88        29.8992   28.4055   -1.2424 H         1 UNK         0.0703 
     89 H89        27.5468   26.7560   -1.8258 H         1 UNK         0.3081 
     90 H90        25.7540   29.5562   -2.8304 H         1 UNK         0.0719 
     91 H91        26.5611   28.9272   -5.1145 H         1 UNK         0.0809 
     92 H92        26.4084   27.2212   -4.7141 H         1 UNK         0.0809 
     93 H93        24.9748   28.2453   -4.7958 H         1 UNK         0.0809 
     94 H94        25.1802   26.7092   -2.6393 H         1 UNK         0.2990 
     95 H95        24.4417   26.7350    0.8512 H         1 UNK         0.0690 
     96 H96        22.4666   25.5727   -0.0901 H         1 UNK         0.0788 
     97 H97        22.8394   26.1809   -1.7018 H         1 UNK         0.0788 
     98 H98        22.3969   27.2960   -0.4206 H         1 UNK         0.0788 
     99 H99        25.5610   24.9174    0.4959 H         1 UNK         0.2993 
    100 H100       25.7009   22.4502   -1.5861 H         1 UNK         0.0949 
    101 H101       27.0126   23.3877   -3.4645 H         1 UNK         0.0767 
    102 H102       28.0555   24.2632   -2.3520 H         1 UNK         0.0767 
    103 H103       28.0835   22.5018   -2.3937 H         1 UNK         0.0767 
    104 H104       27.6015   23.9783    0.1540 H         1 UNK         0.3013 
    105 H105       30.2255   28.2452    0.9499 H         1 UNK         0.3121 
    106 H106       29.7481   25.9298    2.4863 H         1 UNK         0.0774 
    107 H107       27.3000   26.6798    2.1932 H         1 UNK         0.0815 
    108 H108       27.8254   26.8131    3.8572 H         1 UNK         0.0815 
    109 H109       27.7339   28.2516    2.8465 H         1 UNK         0.0815 
    110 H110       30.1910   26.3423    4.7555 H         1 UNK         0.2987 
    111 H111       32.4537   27.8978    5.2409 H         1 UNK         0.0949 
    112 H112       31.8464   25.9105    6.5740 H         1 UNK         0.0806 
    113 H113       32.0397   27.2913    7.6393 H         1 UNK         0.0806 
    114 H114       30.4261   26.7335    7.2218 H         1 UNK         0.0806 
    115 H115       29.1514   28.8940    5.3633 H         1 UNK         0.3010 
    116 H116       29.2580   31.2498    6.9271 H         1 UNK         0.0829 
    117 H117       27.1381   30.1784    6.1892 H         1 UNK         0.0813 
    118 H118       27.1915   31.8438    5.6392 H         1 UNK         0.0813 
    119 H119       27.5114   30.5412    4.5028 H         1 UNK         0.0813 
    120 H120       30.6810   30.6203    3.7945 H         1 UNK         0.3038 
    121 H121       31.0270   33.3950    3.0024 H         1 UNK         0.0769 
    122 H122       32.5069   32.4068    1.2838 H         1 UNK         0.0811 
    123 H123       31.0181   31.4813    1.3728 H         1 UNK         0.0811 
    124 H124       32.4926   30.8544    2.1074 H         1 UNK         0.0811 
    125 H125       32.1752   31.9093    5.6673 H         1 UNK         0.3204 
    126 H126       33.5901   32.4480    7.2340 H         1 UNK         0.0748 
    127 H127       35.1310   34.3303    7.1959 H         1 UNK         0.0771 
    128 H128       35.0264   34.4753    5.4518 H         1 UNK         0.0771 
    129 H129       33.6235   34.8428    6.4571 H         1 UNK         0.0771 
    130 H130       34.1441   30.6237    4.7292 H         1 UNK         0.2980 
    131 H131       36.9509   29.9550    5.2335 H         1 UNK         0.0545 
    132 H132       34.6813   27.7811    7.7127 H         1 UNK         0.3459 
    133 H133       34.0617   29.2262    6.9510 H         1 UNK         0.3459 
    134 H134       36.2233   29.7951    2.9432 H         1 UNK         0.0616 
    135 H135       36.6900   28.2305    3.5191 H         1 UNK         0.0616 
    136 H136       35.5406   26.2960    2.9950 H         1 UNK         0.0634 
    137 H137       34.4638   26.3584    4.3714 H         1 UNK         0.0634 
@<TRIPOS>BOND
     1    1    2 1    
     2    1   72 1    
     3    1   73 1    
     4    1   74 1    
     5    2    3 2    
     6    2    4 am   BACKBONE|DICT|INTERRES
     7    4    5 1    
     8    4   75 1    
     9    5    6 1    
    10    5   35 1    
    11    5   76 1    
    12    6    7 1    
    13    6   77 1    
    14    6   78 1    
    15    7    8 1    
    16    8    9 1    
    17    8   79 1    
    18    8   80 1    
    19    9   10 ar   
    20    9   14 ar   
    21   10   11 ar   
    22   10   81 1    
    23   11   12 ar   
    24   11   71 1    
    25   12   13 ar   
    26   12   82 1    
    27   13   14 ar   
    28   13   15 1    
    29   14   83 1    
    30   15   16 1    
    31   15   84 1    
    32   15   85 1    
    33   16   17 1    
    34   17   18 1    
    35   17   86 1    
    36   17   87 1    
    37   18   19 1    
    38   18   37 1    
    39   18   88 1    
    40   19   20 am   BACKBONE|DICT|INTERRES
    41   19   89 1    
    42   20   21 2    
    43   20   22 1    
    44   22   23 1    
    45   22   24 1    
    46   22   90 1    
    47   23   91 1    
    48   23   92 1    
    49   23   93 1    
    50   24   25 am   BACKBONE|DICT|INTERRES
    51   24   94 1    
    52   25   26 2    
    53   25   27 1    
    54   27   28 1    
    55   27   29 1    
    56   27   95 1    
    57   28   96 1    
    58   28   97 1    
    59   28   98 1    
    60   29   30 am   BACKBONE|DICT|INTERRES
    61   29   99 1    
    62   30   31 2    
    63   30   32 1    
    64   32   33 1    
    65   32   34 1    
    66   32  100 1    
    67   33  101 1    
    68   33  102 1    
    69   33  103 1    
    70   34   35 am   BACKBONE|DICT|INTERRES
    71   34  104 1    
    72   35   36 2    
    73   37   38 2    
    74   37   39 am   BACKBONE|DICT|INTERRES
    75   39   40 1    
    76   39  105 1    
    77   40   41 1    
    78   40   42 1    
    79   40  106 1    
    80   41  107 1    
    81   41  108 1    
    82   41  109 1    
    83   42   43 2    
    84   42   44 am   BACKBONE|DICT|INTERRES
    85   44   45 1    
    86   44  110 1    
    87   45   46 1    
    88   45   47 1    
    89   45  111 1    
    90   46  112 1    
    91   46  113 1    
    92   46  114 1    
    93   47   48 2    
    94   47   49 am   BACKBONE|DICT|INTERRES
    95   49   50 1    
    96   49  115 1    
    97   50   51 1    
    98   50   52 1    
    99   50  116 1    
   100   51  117 1    
   101   51  118 1    
   102   51  119 1    
   103   52   53 2    
   104   52   54 am   BACKBONE|DICT|INTERRES
   105   54   55 1    
   106   54  120 1    
   107   55   56 1    
   108   55   57 1    
   109   55  121 1    
   110   56  122 1    
   111   56  123 1    
   112   56  124 1    
   113   57   58 2    
   114   57   59 am   BACKBONE|DICT|INTERRES
   115   59   60 1    
   116   59  125 1    
   117   60   61 1    
   118   60   62 1    
   119   60  126 1    
   120   61  127 1    
   121   61  128 1    
   122   61  129 1    
   123   62   63 2    
   124   62   64 am   BACKBONE|DICT|INTERRES
   125   64   65 1    
   126   64  130 1    
   127   65   66 1    
   128   65   69 1    
   129   65  131 1    
   130   66   67 am   BACKBONE|DICT|INTERRES
   131   66   68 2    
   132   67  132 1    
   133   67  133 1    
   134   69   70 1    
   135   69  134 1    
   136   69  135 1    
   137   70   71 1    
   138   71  136 1    
   139   71  137 1    
@<TRIPOS>SUBSTRUCTURE
     1 UNK         1 GROUP             0       ****    0 ROOT    
