@<TRIPOS>MOLECULE
3R136
137   139    1
SMALL
USER_CHARGES


@<TRIPOS>ATOM
      1 CA         25.6635   20.6532    3.6534 C.3       0 UNK        -0.1979 
      2 C          26.4199   21.9721    3.7184 C.2       0 UNK         0.4864 
      3 O          26.4928   22.5762    4.7890 O.2       0 UNK        -0.5359 
      4 N          26.9735   22.4146    2.5786 N.am      1 UNK        -0.4318 
      5 CA         27.7590   23.6469    2.4020 C.3       1 UNK         0.0824 
      6 C6         29.1189   23.6379    3.1569 C.3       12 UNK        -0.0944 
      7 S7         30.1543   22.1712    2.8307 S.3       12 UNK        -0.2672 
      8 C8         31.0519   22.6662    1.3179 C.3       12 UNK         0.0333 
      9 C9         32.1505   23.7238    1.4693 C.ar      12 UNK        -0.0807 
     10 C10        32.4561   24.3652    2.6796 C.ar      12 UNK        -0.0894 
     11 C11        33.4405   25.3589    2.7422 C.ar      12 UNK        -0.0804 
     12 C12        34.1372   25.6927    1.5767 C.ar      12 UNK        -0.0824 
     13 C13        33.8520   25.0634    0.3654 C.ar      12 UNK        -0.0762 
     14 C14        32.8645   24.0782    0.3203 C.ar      12 UNK        -0.0782 
     15 C15        34.6118   25.4634   -0.8896 C.3       12 UNK         0.0230 
     16 S16        34.1001   27.1040   -1.4933 S.3       12 UNK        -0.2608 
     17 C17        32.4868   26.7440   -2.2631 C.3       12 UNK        -0.0989 
     18 CA         31.3448   27.6089   -1.6697 C.3       5 UNK         0.0716 
     19 N          30.2603   27.7980   -2.6365 N.am      5 UNK        -0.4135 
     20 C          29.3050   28.7313   -2.5254 C.2       4 UNK         0.5031 
     21 O          29.3588   29.6695   -1.7274 O.2       4 UNK        -0.5229 
     22 CA         28.0602   28.6027   -3.4243 C.3       4 UNK         0.0329 
     23 CB         28.1209   27.4545   -4.4595 C.3       4 UNK        -0.2001 
     24 N          26.8463   28.5207   -2.6000 N.am      4 UNK        -0.4303 
     25 C          26.5231   27.5524   -1.7283 C.2       3 UNK         0.5044 
     26 O          27.1536   26.5031   -1.5796 O.2       3 UNK        -0.5152 
     27 CA         25.2741   27.8043   -0.8750 C.3       3 UNK         0.0319 
     28 CB         23.9870   27.6178   -1.7004 C.3       3 UNK        -0.2001 
     29 N          25.2650   26.8845    0.2631 N.am      3 UNK        -0.4354 
     30 C          24.6894   27.1272    1.4474 C.2       2 UNK         0.4964 
     31 O          24.1270   28.1880    1.7213 O.2       2 UNK        -0.5047 
     32 CA         24.7081   26.0095    2.5061 C.3       2 UNK         0.0288 
     33 CB         23.3112   25.3772    2.6324 C.3       2 UNK        -0.2113 
     34 N          25.6767   24.9442    2.2300 N.am      2 UNK        -0.4145 
     35 C          26.9262   24.9139    2.7144 C.2       1 UNK         0.5006 
     36 O          27.4111   25.8186    3.3990 O.2       1 UNK        -0.5103 
     37 C          30.7125   26.9988   -0.4033 C.2       5 UNK         0.5055 
     38 O          30.2769   25.8461   -0.4507 O.2       5 UNK        -0.5220 
     39 N          30.5613   27.8156    0.6460 N.am      6 UNK        -0.4450 
     40 CA         29.6601   27.5398    1.7592 C.3       6 UNK         0.0367 
     41 CB         28.4349   28.4635    1.6376 C.3       6 UNK        -0.1929 
     42 C          30.3432   27.7627    3.1063 C.2       6 UNK         0.5070 
     43 O          31.1663   28.6702    3.2452 O.2       6 UNK        -0.5237 
     44 N          29.8977   26.9948    4.1067 N.am      7 UNK        -0.4739 
     45 CA         30.2270   27.1798    5.5209 C.3       7 UNK         0.0276 
     46 CB         29.8141   25.9287    6.3097 C.3       7 UNK        -0.1927 
     47 C          29.5574   28.4397    6.0895 C.2       7 UNK         0.5013 
     48 O          30.1583   29.1251    6.9153 O.2       7 UNK        -0.5193 
     49 N          28.3694   28.7760    5.5634 N.am      8 UNK        -0.4253 
     50 CA         27.6607   30.0372    5.8060 C.3       8 UNK         0.0242 
     51 CB         26.2784   29.9711    5.1356 C.3       8 UNK        -0.2000 
     52 C          28.4332   31.2831    5.3251 C.2       8 UNK         0.4948 
     53 O          28.2151   32.3690    5.8623 O.2       8 UNK        -0.5275 
     54 N          29.3332   31.0998    4.3483 N.am      9 UNK        -0.4246 
     55 CA         30.2586   32.1135    3.8402 C.3       9 UNK         0.0261 
     56 CB         30.3038   32.0119    2.3042 C.3       9 UNK        -0.1959 
     57 C          31.6704   31.9634    4.4417 C.2       9 UNK         0.5033 
     58 O          32.5933   32.6164    3.9521 O.2       9 UNK        -0.5390 
     59 N          31.8375   31.0942    5.4540 N.am      10 UNK        -0.4215 
     60 CA         33.0928   30.7547    6.1386 C.3       10 UNK         0.0240 
     61 CB         33.5582   31.9333    7.0203 C.3       10 UNK        -0.1982 
     62 C          34.1945   30.2459    5.1853 C.2       10 UNK         0.4970 
     63 O          35.3671   30.5705    5.3800 O.2       10 UNK        -0.4916 
     64 N          33.7868   29.4816    4.1622 N.am      11 UNK        -0.4279 
     65 CA         34.6136   28.9928    3.0469 C.3       11 UNK         0.1003 
     66 C          35.0707   30.1073    2.0541 C.2       11 UNK         0.5709 
     67 N          34.5559   31.3303    2.1234 N.am      11 UNK        -0.7358 
     68 O          35.8871   29.8519    1.1723 O.2       11 UNK        -0.4999 
     69 C69        35.7960   28.0727    3.4933 C.3       12 UNK        -0.0954 
     70 S70        35.4118   26.5379    4.4253 S.3       12 UNK        -0.2268 
     71 C71        33.6757   26.0913    4.0642 C.3       12 UNK         0.0203 
     72 H72        26.1101   19.9319    4.3373 H         1 UNK         0.0888 
     73 H73        24.6243   20.8021    3.9453 H         1 UNK         0.0888 
     74 H74        25.6764   20.2229    2.6522 H         1 UNK         0.0888 
     75 H75        26.8757   21.8503    1.7458 H         1 UNK         0.3017 
     76 H76        27.9856   23.7081    1.3363 H         1 UNK         0.0873 
     77 H77        29.6958   24.5225    2.8938 H         1 UNK         0.0745 
     78 H78        28.9560   23.6909    4.2347 H         1 UNK         0.0745 
     79 H79        30.3255   23.0180    0.5835 H         1 UNK         0.0705 
     80 H80        31.5010   21.7662    0.8957 H         1 UNK         0.0705 
     81 H81        31.9172   24.1135    3.5811 H         1 UNK         0.1334 
     82 H82        34.8964   26.4567    1.5877 H         1 UNK         0.1417 
     83 H83        32.6323   23.5982   -0.6208 H         1 UNK         0.1562 
     84 H84        34.4864   24.7228   -1.6811 H         1 UNK         0.0748 
     85 H85        35.6795   25.4902   -0.6664 H         1 UNK         0.0748 
     86 H86        32.2580   25.6778   -2.2138 H         1 UNK         0.0940 
     87 H87        32.6048   26.9656   -3.3251 H         1 UNK         0.0940 
     88 H88        31.7481   28.5957   -1.4298 H         1 UNK         0.0703 
     89 H89        30.1036   27.0378   -3.2812 H         1 UNK         0.3081 
     90 H90        27.9924   29.5391   -3.9801 H         1 UNK         0.0719 
     91 H91        28.9687   27.5777   -5.1348 H         1 UNK         0.0809 
     92 H92        28.2061   26.4723   -3.9937 H         1 UNK         0.0809 
     93 H93        27.2239   27.4437   -5.0788 H         1 UNK         0.0809 
     94 H94        26.2623   29.3453   -2.6222 H         1 UNK         0.2990 
     95 H95        25.3260   28.8319   -0.5078 H         1 UNK         0.0690 
     96 H96        23.0990   27.8235   -1.1024 H         1 UNK         0.0788 
     97 H97        23.9020   26.6009   -2.0856 H         1 UNK         0.0788 
     98 H98        23.9619   28.2946   -2.5552 H         1 UNK         0.0788 
     99 H99        25.7794   26.0262    0.1130 H         1 UNK         0.2993 
    100 H100       24.9491   26.4800    3.4624 H         1 UNK         0.0949 
    101 H101       22.5609   26.1303    2.8780 H         1 UNK         0.0767 
    102 H102       22.9988   24.8965    1.7043 H         1 UNK         0.0767 
    103 H103       23.2861   24.6283    3.4245 H         1 UNK         0.0767 
    104 H104       25.3461   24.1562    1.6917 H         1 UNK         0.3013 
    105 H105       30.9821   28.7340    0.6363 H         1 UNK         0.3121 
    106 H106       29.3211   26.5048    1.7169 H         1 UNK         0.0774 
    107 H107       28.7142   29.5168    1.6653 H         1 UNK         0.0815 
    108 H108       27.9094   28.2900    0.7008 H         1 UNK         0.0815 
    109 H109       27.7196   28.2917    2.4419 H         1 UNK         0.0815 
    110 H110       29.1323   26.3550    3.9048 H         1 UNK         0.2987 
    111 H111       31.3060   27.3098    5.6192 H         1 UNK         0.0949 
    112 H112       30.3525   25.0474    5.9604 H         1 UNK         0.0806 
    113 H113       30.0380   26.0443    7.3711 H         1 UNK         0.0806 
    114 H114       28.7459   25.7261    6.2196 H         1 UNK         0.0806 
    115 H115       27.9455   28.1341    4.9082 H         1 UNK         0.3010 
    116 H116       27.5189   30.1369    6.8843 H         1 UNK         0.0829 
    117 H117       25.6889   29.1383    5.5196 H         1 UNK         0.0813 
    118 H118       25.7092   30.8823    5.3256 H         1 UNK         0.0813 
    119 H119       26.3562   29.8567    4.0535 H         1 UNK         0.0813 
    120 H120       29.4680   30.1664    3.9860 H         1 UNK         0.3038 
    121 H121       29.9020   33.1113    4.1037 H         1 UNK         0.0769 
    122 H122       29.3082   32.1022    1.8697 H         1 UNK         0.0811 
    123 H123       30.7318   31.0651    1.9735 H         1 UNK         0.0811 
    124 H124       30.9133   32.8089    1.8762 H         1 UNK         0.0811 
    125 H125       31.0251   30.5933    5.7979 H         1 UNK         0.3204 
    126 H126       32.8624   29.9192    6.8011 H         1 UNK         0.0748 
    127 H127       34.4177   31.6524    7.6304 H         1 UNK         0.0771 
    128 H128       33.8520   32.7950    6.4198 H         1 UNK         0.0771 
    129 H129       32.7702   32.2527    7.7023 H         1 UNK         0.0771 
    130 H130       32.7926   29.3025    4.0498 H         1 UNK         0.2980 
    131 H131       33.9334   28.3929    2.4446 H         1 UNK         0.0545 
    132 H132       34.8626   32.0234    1.4604 H         1 UNK         0.3459 
    133 H133       33.8891   31.5895    2.8427 H         1 UNK         0.3459 
    134 H134       36.3735   27.7566    2.6238 H         1 UNK         0.0616 
    135 H135       36.5047   28.6434    4.0938 H         1 UNK         0.0616 
    136 H136       33.3422   25.4567    4.8866 H         1 UNK         0.0634 
    137 H137       33.0411   26.9704    4.1032 H         1 UNK         0.0634 
@<TRIPOS>BOND
     1    1    2 1    
     2    1   72 1    
     3    1   73 1    
     4    1   74 1    
     5    2    3 2    
     6    2    4 am   BACKBONE|DICT|INTERRES
     7    4    5 1    
     8    4   75 1    
     9    5    6 1    
    10    5   35 1    
    11    5   76 1    
    12    6    7 1    
    13    6   77 1    
    14    6   78 1    
    15    7    8 1    
    16    8    9 1    
    17    8   79 1    
    18    8   80 1    
    19    9   10 ar   
    20    9   14 ar   
    21   10   11 ar   
    22   10   81 1    
    23   11   12 ar   
    24   11   71 1    
    25   12   13 ar   
    26   12   82 1    
    27   13   14 ar   
    28   13   15 1    
    29   14   83 1    
    30   15   16 1    
    31   15   84 1    
    32   15   85 1    
    33   16   17 1    
    34   17   18 1    
    35   17   86 1    
    36   17   87 1    
    37   18   19 1    
    38   18   37 1    
    39   18   88 1    
    40   19   20 am   BACKBONE|DICT|INTERRES
    41   19   89 1    
    42   20   21 2    
    43   20   22 1    
    44   22   23 1    
    45   22   24 1    
    46   22   90 1    
    47   23   91 1    
    48   23   92 1    
    49   23   93 1    
    50   24   25 am   BACKBONE|DICT|INTERRES
    51   24   94 1    
    52   25   26 2    
    53   25   27 1    
    54   27   28 1    
    55   27   29 1    
    56   27   95 1    
    57   28   96 1    
    58   28   97 1    
    59   28   98 1    
    60   29   30 am   BACKBONE|DICT|INTERRES
    61   29   99 1    
    62   30   31 2    
    63   30   32 1    
    64   32   33 1    
    65   32   34 1    
    66   32  100 1    
    67   33  101 1    
    68   33  102 1    
    69   33  103 1    
    70   34   35 am   BACKBONE|DICT|INTERRES
    71   34  104 1    
    72   35   36 2    
    73   37   38 2    
    74   37   39 am   BACKBONE|DICT|INTERRES
    75   39   40 1    
    76   39  105 1    
    77   40   41 1    
    78   40   42 1    
    79   40  106 1    
    80   41  107 1    
    81   41  108 1    
    82   41  109 1    
    83   42   43 2    
    84   42   44 am   BACKBONE|DICT|INTERRES
    85   44   45 1    
    86   44  110 1    
    87   45   46 1    
    88   45   47 1    
    89   45  111 1    
    90   46  112 1    
    91   46  113 1    
    92   46  114 1    
    93   47   48 2    
    94   47   49 am   BACKBONE|DICT|INTERRES
    95   49   50 1    
    96   49  115 1    
    97   50   51 1    
    98   50   52 1    
    99   50  116 1    
   100   51  117 1    
   101   51  118 1    
   102   51  119 1    
   103   52   53 2    
   104   52   54 am   BACKBONE|DICT|INTERRES
   105   54   55 1    
   106   54  120 1    
   107   55   56 1    
   108   55   57 1    
   109   55  121 1    
   110   56  122 1    
   111   56  123 1    
   112   56  124 1    
   113   57   58 2    
   114   57   59 am   BACKBONE|DICT|INTERRES
   115   59   60 1    
   116   59  125 1    
   117   60   61 1    
   118   60   62 1    
   119   60  126 1    
   120   61  127 1    
   121   61  128 1    
   122   61  129 1    
   123   62   63 2    
   124   62   64 am   BACKBONE|DICT|INTERRES
   125   64   65 1    
   126   64  130 1    
   127   65   66 1    
   128   65   69 1    
   129   65  131 1    
   130   66   67 am   BACKBONE|DICT|INTERRES
   131   66   68 2    
   132   67  132 1    
   133   67  133 1    
   134   69   70 1    
   135   69  134 1    
   136   69  135 1    
   137   70   71 1    
   138   71  136 1    
   139   71  137 1    
@<TRIPOS>SUBSTRUCTURE
     1 UNK         1 GROUP             0       ****    0 ROOT    
