@<TRIPOS>MOLECULE
3R136
137   139    1
SMALL
USER_CHARGES


@<TRIPOS>ATOM
      1 CA         27.8043   21.5713    1.4574 C.3       0 UNK        -0.1979 
      2 C          28.5983   21.9612    0.2195 C.2       0 UNK         0.4864 
      3 O          28.3435   21.4349   -0.8642 O.2       0 UNK        -0.5359 
      4 N          29.5531   22.8885    0.3718 N.am      1 UNK        -0.4318 
      5 CA         30.3841   23.4295   -0.7126 C.3       1 UNK         0.0824 
      6 C6         31.6773   24.0732   -0.1521 C.3       12 UNK        -0.0944 
      7 S7         32.9459   22.8406    0.3067 S.3       12 UNK        -0.2672 
      8 C8         32.4672   22.2907    1.9813 C.3       12 UNK         0.0333 
      9 C9         32.2309   23.4381    2.9548 C.ar      12 UNK        -0.0807 
     10 C10        33.2360   24.3763    3.2082 C.ar      12 UNK        -0.0894 
     11 C11        33.0073   25.4418    4.0837 C.ar      12 UNK        -0.0804 
     12 C12        31.7639   25.5658    4.7111 C.ar      12 UNK        -0.0824 
     13 C13        30.7593   24.6206    4.4830 C.ar      12 UNK        -0.0762 
     14 C14        31.0030   23.5551    3.6121 C.ar      12 UNK        -0.0782 
     15 C15        29.4177   24.7267    5.1932 C.3       12 UNK         0.0230 
     16 S16        28.0496   25.0117    4.0268 S.3       12 UNK        -0.2608 
     17 C17        28.2152   26.8004    3.7051 C.3       12 UNK        -0.0989 
     18 CA         27.4938   27.2314    2.3983 C.3       5 UNK         0.0716 
     19 N          26.0839   26.8276    2.3422 N.am      5 UNK        -0.4135 
     20 C          25.0741   27.2590    3.1143 C.2       4 UNK         0.5031 
     21 O          25.2236   28.0189    4.0725 O.2       4 UNK        -0.5229 
     22 CA         23.6510   26.7902    2.7264 C.3       4 UNK         0.0329 
     23 CB         22.5769   27.8442    3.0706 C.3       4 UNK        -0.2001 
     24 N          23.5224   26.3677    1.3213 N.am      4 UNK        -0.4303 
     25 C          23.8027   27.1000    0.2323 C.2       3 UNK         0.5044 
     26 O          24.1648   28.2772    0.2634 O.2       3 UNK        -0.5152 
     27 CA         23.7888   26.3564   -1.1140 C.3       3 UNK         0.0319 
     28 CB         22.8514   27.0487   -2.1170 C.3       3 UNK        -0.2001 
     29 N          25.1396   26.2774   -1.6829 N.am      3 UNK        -0.4354 
     30 C          26.1941   25.7117   -1.0792 C.2       2 UNK         0.4964 
     31 O          26.1332   25.1354    0.0125 O.2       2 UNK        -0.5047 
     32 CA         27.5488   25.8376   -1.7861 C.3       2 UNK         0.0288 
     33 CB         28.0726   27.2865   -1.7560 C.3       2 UNK        -0.2113 
     34 N          28.4856   24.9545   -1.1009 N.am      2 UNK        -0.4145 
     35 C          29.6088   24.4294   -1.6027 C.2       1 UNK         0.5006 
     36 O          30.0400   24.6970   -2.7256 O.2       1 UNK        -0.5103 
     37 C          27.7085   28.7301    2.0732 C.2       5 UNK         0.5055 
     38 O          28.7793   29.2586    2.3823 O.2       5 UNK        -0.5220 
     39 N          26.7302   29.3952    1.4330 N.am      6 UNK        -0.4450 
     40 CA         26.6951   30.8410    1.1710 C.3       6 UNK         0.0367 
     41 CB         25.2353   31.2755    0.9453 C.3       6 UNK        -0.1929 
     42 C          27.6285   31.2950    0.0285 C.2       6 UNK         0.5070 
     43 O          27.2034   32.0052   -0.8839 O.2       6 UNK        -0.5237 
     44 N          28.8949   30.8896    0.1222 N.am      7 UNK        -0.4739 
     45 CA         30.0187   31.2832   -0.7248 C.3       7 UNK         0.0276 
     46 CB         29.9212   30.6558   -2.1285 C.3       7 UNK        -0.1927 
     47 C          31.3257   30.8829   -0.0318 C.2       7 UNK         0.5013 
     48 O          32.2557   31.6871    0.0249 O.2       7 UNK        -0.5193 
     49 N          31.3559   29.6543    0.5064 N.am      8 UNK        -0.4253 
     50 CA         32.4642   29.1125    1.2940 C.3       8 UNK         0.0242 
     51 CB         32.3389   27.5822    1.3391 C.3       8 UNK        -0.2000 
     52 C          32.5246   29.7153    2.7102 C.2       8 UNK         0.4948 
     53 O          33.6222   29.9649    3.2124 O.2       8 UNK        -0.5275 
     54 N          31.3481   29.9671    3.3069 N.am      9 UNK        -0.4246 
     55 CA         31.1159   30.6660    4.5735 C.3       9 UNK         0.0261 
     56 CB         31.3270   32.1847    4.3747 C.3       9 UNK        -0.1959 
     57 C          31.9129   30.0599    5.7454 C.2       9 UNK         0.5033 
     58 O          31.6877   28.8992    6.0886 O.2       9 UNK        -0.5390 
     59 N          32.8215   30.8478    6.3339 N.am      10 UNK        -0.4215 
     60 CA         33.6823   30.4666    7.4564 C.3       10 UNK         0.0240 
     61 CB         34.0816   31.7427    8.2195 C.3       10 UNK        -0.1982 
     62 C          34.9306   29.6577    7.0474 C.2       10 UNK         0.4970 
     63 O          35.7295   29.3319    7.9265 O.2       10 UNK        -0.4916 
     64 N          35.0969   29.3684    5.7484 N.am      11 UNK        -0.4279 
     65 CA         36.2344   28.6450    5.1514 C.3       11 UNK         0.1003 
     66 C          37.5539   29.4728    5.0795 C.2       11 UNK         0.5709 
     67 N          37.5295   30.7832    5.2947 N.am      11 UNK        -0.7358 
     68 O          38.6171   28.9276    4.7914 O.2       11 UNK        -0.4999 
     69 C69        36.4653   27.2171    5.7428 C.3       12 UNK        -0.0954 
     70 S70        35.0092   26.1152    5.8614 S.3       12 UNK        -0.2268 
     71 C71        34.0971   26.4706    4.3322 C.3       12 UNK         0.0203 
     72 H72        28.0543   22.1920    2.3175 H         1 UNK         0.0888 
     73 H73        26.7370   21.6807    1.2661 H         1 UNK         0.0888 
     74 H74        28.0001   20.5315    1.7177 H         1 UNK         0.0888 
     75 H75        29.7174   23.2892    1.2832 H         1 UNK         0.3017 
     76 H76        30.6689   22.6039   -1.3690 H         1 UNK         0.0873 
     77 H77        31.4599   24.7318    0.6898 H         1 UNK         0.0745 
     78 H78        32.1476   24.7100   -0.9045 H         1 UNK         0.0745 
     79 H79        31.5836   21.6563    1.9016 H         1 UNK         0.0705 
     80 H80        33.2594   21.6540    2.3771 H         1 UNK         0.0705 
     81 H81        34.1921   24.2820    2.7116 H         1 UNK         0.1334 
     82 H82        31.5867   26.3921    5.3860 H         1 UNK         0.1417 
     83 H83        30.2289   22.8179    3.4511 H         1 UNK         0.1562 
     84 H84        29.4283   25.5192    5.9434 H         1 UNK         0.0748 
     85 H85        29.2302   23.7975    5.7330 H         1 UNK         0.0748 
     86 H86        29.2790   27.0400    3.6489 H         1 UNK         0.0940 
     87 H87        27.8241   27.3489    4.5637 H         1 UNK         0.0940 
     88 H88        27.9772   26.6965    1.5801 H         1 UNK         0.0703 
     89 H89        25.8648   26.1777    1.5919 H         1 UNK         0.3081 
     90 H90        23.4532   25.9042    3.3314 H         1 UNK         0.0719 
     91 H91        22.7540   28.7863    2.5504 H         1 UNK         0.0809 
     92 H92        21.5791   27.4961    2.8041 H         1 UNK         0.0809 
     93 H93        22.5668   28.0610    4.1396 H         1 UNK         0.0809 
     94 H94        23.2823   25.3949    1.1845 H         1 UNK         0.2990 
     95 H95        23.4297   25.3370   -0.9574 H         1 UNK         0.0690 
     96 H96        22.7969   26.4980   -3.0562 H         1 UNK         0.0788 
     97 H97        23.1784   28.0651   -2.3413 H         1 UNK         0.0788 
     98 H98        21.8370   27.1136   -1.7209 H         1 UNK         0.0788 
     99 H99        25.2822   26.7546   -2.5614 H         1 UNK         0.2993 
    100 H100       27.4290   25.5042   -2.8193 H         1 UNK         0.0949 
    101 H101       27.3784   27.9737   -2.2411 H         1 UNK         0.0767 
    102 H102       28.2263   27.6424   -0.7380 H         1 UNK         0.0767 
    103 H103       29.0228   27.3667   -2.2838 H         1 UNK         0.0767 
    104 H104       28.1476   24.6286   -0.2036 H         1 UNK         0.3013 
    105 H105       25.8979   28.8856    1.1510 H         1 UNK         0.3121 
    106 H106       27.0447   31.3476    2.0732 H         1 UNK         0.0774 
    107 H107       24.5939   30.9629    1.7696 H         1 UNK         0.0815 
    108 H108       25.1570   32.3606    0.8677 H         1 UNK         0.0815 
    109 H109       24.8284   30.8538    0.0255 H         1 UNK         0.0815 
    110 H110       29.1225   30.3466    0.9519 H         1 UNK         0.2987 
    111 H111       30.0095   32.3711   -0.8221 H         1 UNK         0.0949 
    112 H112       30.7665   30.9593   -2.7475 H         1 UNK         0.0806 
    113 H113       29.9242   29.5675   -2.0864 H         1 UNK         0.0806 
    114 H114       29.0154   30.9681   -2.6479 H         1 UNK         0.0806 
    115 H115       30.5532   29.0553    0.3860 H         1 UNK         0.3010 
    116 H116       33.3973   29.3627    0.7841 H         1 UNK         0.0829 
    117 H117       32.2187   27.1635    0.3400 H         1 UNK         0.0813 
    118 H118       33.2399   27.1375    1.7575 H         1 UNK         0.0813 
    119 H119       31.4936   27.2550    1.9466 H         1 UNK         0.0813 
    120 H120       30.4967   29.6601    2.8416 H         1 UNK         0.3038 
    121 H121       30.0634   30.5105    4.8162 H         1 UNK         0.0769 
    122 H122       32.3492   32.4251    4.0793 H         1 UNK         0.0811 
    123 H123       31.0948   32.7430    5.2827 H         1 UNK         0.0811 
    124 H124       30.6677   32.5663    3.5947 H         1 UNK         0.0811 
    125 H125       32.9476   31.7794    5.9650 H         1 UNK         0.3204 
    126 H126       33.1060   29.8341    8.1350 H         1 UNK         0.0748 
    127 H127       33.2039   32.2933    8.5589 H         1 UNK         0.0771 
    128 H128       34.6703   31.5040    9.1065 H         1 UNK         0.0771 
    129 H129       34.6811   32.4126    7.6018 H         1 UNK         0.0771 
    130 H130       34.4072   29.6937    5.0789 H         1 UNK         0.2980 
    131 H131       35.9601   28.5184    4.1046 H         1 UNK         0.0545 
    132 H132       38.3870   31.3091    5.2341 H         1 UNK         0.3459 
    133 H133       36.6641   31.2487    5.5135 H         1 UNK         0.3459 
    134 H134       37.2041   26.6871    5.1392 H         1 UNK         0.0616 
    135 H135       36.9020   27.2876    6.7399 H         1 UNK         0.0616 
    136 H136       33.6482   27.4612    4.3979 H         1 UNK         0.0634 
    137 H137       34.7946   26.4911    3.4937 H         1 UNK         0.0634 
@<TRIPOS>BOND
     1    1    2 1    
     2    1   72 1    
     3    1   73 1    
     4    1   74 1    
     5    2    3 2    
     6    2    4 am   BACKBONE|DICT|INTERRES
     7    4    5 1    
     8    4   75 1    
     9    5    6 1    
    10    5   35 1    
    11    5   76 1    
    12    6    7 1    
    13    6   77 1    
    14    6   78 1    
    15    7    8 1    
    16    8    9 1    
    17    8   79 1    
    18    8   80 1    
    19    9   10 ar   
    20    9   14 ar   
    21   10   11 ar   
    22   10   81 1    
    23   11   12 ar   
    24   11   71 1    
    25   12   13 ar   
    26   12   82 1    
    27   13   14 ar   
    28   13   15 1    
    29   14   83 1    
    30   15   16 1    
    31   15   84 1    
    32   15   85 1    
    33   16   17 1    
    34   17   18 1    
    35   17   86 1    
    36   17   87 1    
    37   18   19 1    
    38   18   37 1    
    39   18   88 1    
    40   19   20 am   BACKBONE|DICT|INTERRES
    41   19   89 1    
    42   20   21 2    
    43   20   22 1    
    44   22   23 1    
    45   22   24 1    
    46   22   90 1    
    47   23   91 1    
    48   23   92 1    
    49   23   93 1    
    50   24   25 am   BACKBONE|DICT|INTERRES
    51   24   94 1    
    52   25   26 2    
    53   25   27 1    
    54   27   28 1    
    55   27   29 1    
    56   27   95 1    
    57   28   96 1    
    58   28   97 1    
    59   28   98 1    
    60   29   30 am   BACKBONE|DICT|INTERRES
    61   29   99 1    
    62   30   31 2    
    63   30   32 1    
    64   32   33 1    
    65   32   34 1    
    66   32  100 1    
    67   33  101 1    
    68   33  102 1    
    69   33  103 1    
    70   34   35 am   BACKBONE|DICT|INTERRES
    71   34  104 1    
    72   35   36 2    
    73   37   38 2    
    74   37   39 am   BACKBONE|DICT|INTERRES
    75   39   40 1    
    76   39  105 1    
    77   40   41 1    
    78   40   42 1    
    79   40  106 1    
    80   41  107 1    
    81   41  108 1    
    82   41  109 1    
    83   42   43 2    
    84   42   44 am   BACKBONE|DICT|INTERRES
    85   44   45 1    
    86   44  110 1    
    87   45   46 1    
    88   45   47 1    
    89   45  111 1    
    90   46  112 1    
    91   46  113 1    
    92   46  114 1    
    93   47   48 2    
    94   47   49 am   BACKBONE|DICT|INTERRES
    95   49   50 1    
    96   49  115 1    
    97   50   51 1    
    98   50   52 1    
    99   50  116 1    
   100   51  117 1    
   101   51  118 1    
   102   51  119 1    
   103   52   53 2    
   104   52   54 am   BACKBONE|DICT|INTERRES
   105   54   55 1    
   106   54  120 1    
   107   55   56 1    
   108   55   57 1    
   109   55  121 1    
   110   56  122 1    
   111   56  123 1    
   112   56  124 1    
   113   57   58 2    
   114   57   59 am   BACKBONE|DICT|INTERRES
   115   59   60 1    
   116   59  125 1    
   117   60   61 1    
   118   60   62 1    
   119   60  126 1    
   120   61  127 1    
   121   61  128 1    
   122   61  129 1    
   123   62   63 2    
   124   62   64 am   BACKBONE|DICT|INTERRES
   125   64   65 1    
   126   64  130 1    
   127   65   66 1    
   128   65   69 1    
   129   65  131 1    
   130   66   67 am   BACKBONE|DICT|INTERRES
   131   66   68 2    
   132   67  132 1    
   133   67  133 1    
   134   69   70 1    
   135   69  134 1    
   136   69  135 1    
   137   70   71 1    
   138   71  136 1    
   139   71  137 1    
@<TRIPOS>SUBSTRUCTURE
     1 UNK         1 GROUP             0       ****    0 ROOT    
