@<TRIPOS>MOLECULE
3R136
137   139    1
SMALL
USER_CHARGES


@<TRIPOS>ATOM
      1 CA         29.0605   19.1105   -0.4118 C.3       0 UNK        -0.1979 
      2 C          28.9897   20.6303   -0.3951 C.2       0 UNK         0.4864 
      3 O          29.5372   21.2761   -1.2893 O.2       0 UNK        -0.5359 
      4 N          28.3254   21.2020    0.6188 N.am      1 UNK        -0.4318 
      5 CA         28.1399   22.6469    0.8029 C.3       1 UNK         0.0824 
      6 C6         27.5642   22.9807    2.2040 C.3       12 UNK        -0.0944 
      7 S7         28.5752   22.3341    3.5846 S.3       12 UNK        -0.2672 
      8 C8         28.9512   23.8387    4.5570 C.3       12 UNK         0.0333 
      9 C9         30.3536   24.4083    4.3398 C.ar      12 UNK        -0.0807 
     10 C10        31.0051   25.0451    5.4036 C.ar      12 UNK        -0.0894 
     11 C11        32.2792   25.6019    5.2442 C.ar      12 UNK        -0.0804 
     12 C12        32.8979   25.5146    3.9912 C.ar      12 UNK        -0.0824 
     13 C13        32.2611   24.8956    2.9164 C.ar      12 UNK        -0.0762 
     14 C14        30.9923   24.3430    3.0966 C.ar      12 UNK        -0.0782 
     15 C15        32.9603   24.8250    1.5684 C.3       12 UNK         0.0230 
     16 S16        32.6723   26.3303    0.5867 S.3       12 UNK        -0.2608 
     17 C17        31.0519   25.9708   -0.1671 C.3       12 UNK        -0.0989 
     18 CA         30.0144   27.0948    0.0604 C.3       5 UNK         0.0716 
     19 N          28.9119   26.9614   -0.8848 N.am      5 UNK        -0.4135 
     20 C          28.4985   27.8965   -1.7465 C.2       4 UNK         0.5031 
     21 O          29.0630   28.9773   -1.9195 O.2       4 UNK        -0.5229 
     22 CA         27.2266   27.5772   -2.5433 C.3       4 UNK         0.0329 
     23 CB         27.5715   26.7531   -3.7949 C.3       4 UNK        -0.2001 
     24 N          26.2713   26.8274   -1.7285 N.am      4 UNK        -0.4303 
     25 C          25.2148   27.3462   -1.0877 C.2       3 UNK         0.5044 
     26 O          24.9220   28.5425   -1.1220 O.2       3 UNK        -0.5152 
     27 CA         24.3405   26.3794   -0.2537 C.3       3 UNK         0.0319 
     28 CB         22.8328   26.6699   -0.4112 C.3       3 UNK        -0.2001 
     29 N          24.6337   24.9559   -0.4813 N.am      3 UNK        -0.4354 
     30 C          24.5113   24.2625   -1.6252 C.2       2 UNK         0.4964 
     31 O          23.9572   24.7031   -2.6329 O.2       2 UNK        -0.5047 
     32 CA         25.1601   22.8606   -1.6744 C.3       2 UNK         0.0288 
     33 CB         25.8010   22.5809   -3.0509 C.3       2 UNK        -0.2113 
     34 N          26.1388   22.5773   -0.6100 N.am      2 UNK        -0.4145 
     35 C          27.2580   23.2590   -0.3057 C.2       1 UNK         0.5006 
     36 O          27.5943   24.3166   -0.8465 O.2       1 UNK        -0.5103 
     37 C          29.3934   27.0499    1.4655 C.2       5 UNK         0.5055 
     38 O          28.4580   26.2773    1.6858 O.2       5 UNK        -0.5220 
     39 N          29.9003   27.8789    2.3819 N.am      6 UNK        -0.4450 
     40 CA         29.4040   28.0429    3.7450 C.3       6 UNK         0.0367 
     41 CB         28.0058   28.6994    3.7349 C.3       6 UNK        -0.1929 
     42 C          30.3887   28.9240    4.5166 C.2       6 UNK         0.5070 
     43 O          31.2280   29.5903    3.9042 O.2       6 UNK        -0.5237 
     44 N          30.2140   28.9975    5.8427 N.am      7 UNK        -0.4739 
     45 CA         30.9146   29.9477    6.7185 C.3       7 UNK         0.0276 
     46 CB         30.5666   29.6476    8.1840 C.3       7 UNK        -0.1927 
     47 C          30.6141   31.4209    6.3752 C.2       7 UNK         0.5013 
     48 O          31.4795   32.2756    6.5605 O.2       7 UNK        -0.5193 
     49 N          29.4232   31.6773    5.8120 N.am      8 UNK        -0.4253 
     50 CA         29.0152   32.9587    5.2265 C.3       8 UNK         0.0242 
     51 CB         27.5160   32.9035    4.8910 C.3       8 UNK        -0.2000 
     52 C          29.8300   33.3571    3.9788 C.2       8 UNK         0.4948 
     53 O          29.9275   34.5484    3.6855 O.2       8 UNK        -0.5275 
     54 N          30.4284   32.3717    3.2932 N.am      9 UNK        -0.4246 
     55 CA         31.3769   32.5490    2.1905 C.3       9 UNK         0.0261 
     56 CB         31.0260   31.5586    1.0633 C.3       9 UNK        -0.1959 
     57 C          32.8263   32.3721    2.6883 C.2       9 UNK         0.5033 
     58 O          33.6838   31.9102    1.9325 O.2       9 UNK        -0.5390 
     59 N          33.0668   32.7043    3.9671 N.am      10 UNK        -0.4215 
     60 CA         34.3338   32.6240    4.7034 C.3       10 UNK         0.0240 
     61 CB         35.3647   33.6138    4.1194 C.3       10 UNK        -0.1982 
     62 C          34.9024   31.1971    4.8402 C.2       10 UNK         0.4970 
     63 O          36.0924   31.0560    5.1271 O.2       10 UNK        -0.4916 
     64 N          34.0621   30.1699    4.6397 N.am      11 UNK        -0.4279 
     65 CA         34.4470   28.7516    4.6033 C.3       11 UNK         0.1003 
     66 C          35.3574   28.3867    3.3869 C.2       11 UNK         0.5709 
     67 N          35.3449   29.1603    2.3055 N.am      11 UNK        -0.7358 
     68 O          36.0678   27.3851    3.4035 O.2       11 UNK        -0.4999 
     69 C69        34.9628   28.2581    5.9902 C.3       12 UNK        -0.0954 
     70 S70        34.7551   26.4751    6.3268 S.3       12 UNK        -0.2268 
     71 C71        32.9392   26.2927    6.4416 C.3       12 UNK         0.0203 
     72 H72        28.5446   18.6683    0.4403 H         1 UNK         0.0888 
     73 H73        28.6039   18.7240   -1.3226 H         1 UNK         0.0888 
     74 H74        30.0996   18.7833   -0.3857 H         1 UNK         0.0888 
     75 H75        27.9319   20.6180    1.3434 H         1 UNK         0.3017 
     76 H76        29.1199   23.1147    0.7093 H         1 UNK         0.0873 
     77 H77        26.5623   22.5615    2.3146 H         1 UNK         0.0745 
     78 H78        27.4428   24.0575    2.3155 H         1 UNK         0.0745 
     79 H79        28.8292   23.5764    5.6090 H         1 UNK         0.0705 
     80 H80        28.2160   24.6188    4.3566 H         1 UNK         0.0705 
     81 H81        30.5148   25.1116    6.3656 H         1 UNK         0.1334 
     82 H82        33.8822   25.9260    3.8323 H         1 UNK         0.1417 
     83 H83        30.5007   23.8684    2.2635 H         1 UNK         0.1562 
     84 H84        32.6435   23.9425    1.0102 H         1 UNK         0.0748 
     85 H85        34.0349   24.7119    1.7211 H         1 UNK         0.0748 
     86 H86        30.6665   25.0060    0.1649 H         1 UNK         0.0940 
     87 H87        31.2332   25.8544   -1.2371 H         1 UNK         0.0940 
     88 H88        30.5028   28.0626   -0.0743 H         1 UNK         0.0703 
     89 H89        28.3634   26.1127   -0.7762 H         1 UNK         0.3081 
     90 H90        26.7833   28.5212   -2.8676 H         1 UNK         0.0719 
     91 H91        28.2783   27.2871   -4.4316 H         1 UNK         0.0809 
     92 H92        28.0220   25.7933   -3.5376 H         1 UNK         0.0809 
     93 H93        26.6821   26.5539   -4.3931 H         1 UNK         0.0809 
     94 H94        26.4671   25.8406   -1.5995 H         1 UNK         0.2990 
     95 H95        24.6034   26.5717    0.7876 H         1 UNK         0.0690 
     96 H96        22.2319   25.9868    0.1890 H         1 UNK         0.0788 
     97 H97        22.5075   26.5820   -1.4480 H         1 UNK         0.0788 
     98 H98        22.5933   27.6823   -0.0834 H         1 UNK         0.0788 
     99 H99        25.1027   24.4912    0.2831 H         1 UNK         0.2993 
    100 H100       24.3428   22.1508   -1.5370 H         1 UNK         0.0949 
    101 H101       26.5899   23.2982   -3.2808 H         1 UNK         0.0767 
    102 H102       25.0629   22.6400   -3.8519 H         1 UNK         0.0767 
    103 H103       26.2366   21.5823   -3.0898 H         1 UNK         0.0767 
    104 H104       25.9609   21.7328   -0.0837 H         1 UNK         0.3013 
    105 H105       30.7094   28.4510    2.1713 H         1 UNK         0.3121 
    106 H106       29.3533   27.0662    4.2266 H         1 UNK         0.0774 
    107 H107       27.2710   28.0763    3.2255 H         1 UNK         0.0815 
    108 H108       27.6296   28.8568    4.7461 H         1 UNK         0.0815 
    109 H109       28.0208   29.6685    3.2344 H         1 UNK         0.0815 
    110 H110       29.5058   28.4211    6.2756 H         1 UNK         0.2987 
    111 H111       31.9878   29.7975    6.5869 H         1 UNK         0.0949 
    112 H112       30.8553   28.6333    8.4606 H         1 UNK         0.0806 
    113 H113       31.0937   30.3264    8.8562 H         1 UNK         0.0806 
    114 H114       29.4994   29.7595    8.3789 H         1 UNK         0.0806 
    115 H115       28.7709   30.9125    5.7244 H         1 UNK         0.3010 
    116 H116       29.1719   33.7343    5.9793 H         1 UNK         0.0829 
    117 H117       26.9167   32.7014    5.7790 H         1 UNK         0.0813 
    118 H118       27.1730   33.8551    4.4819 H         1 UNK         0.0813 
    119 H119       27.2940   32.1330    4.1515 H         1 UNK         0.0813 
    120 H120       30.3478   31.4204    3.6338 H         1 UNK         0.3038 
    121 H121       31.2989   33.5602    1.7861 H         1 UNK         0.0769 
    122 H122       31.6499   31.7290    0.1850 H         1 UNK         0.0811 
    123 H123       29.9885   31.6663    0.7467 H         1 UNK         0.0811 
    124 H124       31.1773   30.5244    1.3716 H         1 UNK         0.0811 
    125 H125       32.2800   33.0144    4.5235 H         1 UNK         0.3204 
    126 H126       34.1075   32.9482    5.7202 H         1 UNK         0.0748 
    127 H127       36.2520   33.6770    4.7506 H         1 UNK         0.0771 
    128 H128       35.6951   33.3132    3.1245 H         1 UNK         0.0771 
    129 H129       34.9515   34.6198    4.0460 H         1 UNK         0.0771 
    130 H130       33.1031   30.3572    4.3711 H         1 UNK         0.2980 
    131 H131       33.5095   28.2365    4.4036 H         1 UNK         0.0545 
    132 H132       35.9252   28.9137    1.5202 H         1 UNK         0.3459 
    133 H133       34.7700   29.9926    2.2661 H         1 UNK         0.3459 
    134 H134       36.0185   28.5057    6.1117 H         1 UNK         0.0616 
    135 H135       34.4451   28.7882    6.7912 H         1 UNK         0.0616 
    136 H136       32.7271   25.7170    7.3437 H         1 UNK         0.0634 
    137 H137       32.4779   27.2693    6.5881 H         1 UNK         0.0634 
@<TRIPOS>BOND
     1    1    2 1    
     2    1   72 1    
     3    1   73 1    
     4    1   74 1    
     5    2    3 2    
     6    2    4 am   BACKBONE|DICT|INTERRES
     7    4    5 1    
     8    4   75 1    
     9    5    6 1    
    10    5   35 1    
    11    5   76 1    
    12    6    7 1    
    13    6   77 1    
    14    6   78 1    
    15    7    8 1    
    16    8    9 1    
    17    8   79 1    
    18    8   80 1    
    19    9   10 ar   
    20    9   14 ar   
    21   10   11 ar   
    22   10   81 1    
    23   11   12 ar   
    24   11   71 1    
    25   12   13 ar   
    26   12   82 1    
    27   13   14 ar   
    28   13   15 1    
    29   14   83 1    
    30   15   16 1    
    31   15   84 1    
    32   15   85 1    
    33   16   17 1    
    34   17   18 1    
    35   17   86 1    
    36   17   87 1    
    37   18   19 1    
    38   18   37 1    
    39   18   88 1    
    40   19   20 am   BACKBONE|DICT|INTERRES
    41   19   89 1    
    42   20   21 2    
    43   20   22 1    
    44   22   23 1    
    45   22   24 1    
    46   22   90 1    
    47   23   91 1    
    48   23   92 1    
    49   23   93 1    
    50   24   25 am   BACKBONE|DICT|INTERRES
    51   24   94 1    
    52   25   26 2    
    53   25   27 1    
    54   27   28 1    
    55   27   29 1    
    56   27   95 1    
    57   28   96 1    
    58   28   97 1    
    59   28   98 1    
    60   29   30 am   BACKBONE|DICT|INTERRES
    61   29   99 1    
    62   30   31 2    
    63   30   32 1    
    64   32   33 1    
    65   32   34 1    
    66   32  100 1    
    67   33  101 1    
    68   33  102 1    
    69   33  103 1    
    70   34   35 am   BACKBONE|DICT|INTERRES
    71   34  104 1    
    72   35   36 2    
    73   37   38 2    
    74   37   39 am   BACKBONE|DICT|INTERRES
    75   39   40 1    
    76   39  105 1    
    77   40   41 1    
    78   40   42 1    
    79   40  106 1    
    80   41  107 1    
    81   41  108 1    
    82   41  109 1    
    83   42   43 2    
    84   42   44 am   BACKBONE|DICT|INTERRES
    85   44   45 1    
    86   44  110 1    
    87   45   46 1    
    88   45   47 1    
    89   45  111 1    
    90   46  112 1    
    91   46  113 1    
    92   46  114 1    
    93   47   48 2    
    94   47   49 am   BACKBONE|DICT|INTERRES
    95   49   50 1    
    96   49  115 1    
    97   50   51 1    
    98   50   52 1    
    99   50  116 1    
   100   51  117 1    
   101   51  118 1    
   102   51  119 1    
   103   52   53 2    
   104   52   54 am   BACKBONE|DICT|INTERRES
   105   54   55 1    
   106   54  120 1    
   107   55   56 1    
   108   55   57 1    
   109   55  121 1    
   110   56  122 1    
   111   56  123 1    
   112   56  124 1    
   113   57   58 2    
   114   57   59 am   BACKBONE|DICT|INTERRES
   115   59   60 1    
   116   59  125 1    
   117   60   61 1    
   118   60   62 1    
   119   60  126 1    
   120   61  127 1    
   121   61  128 1    
   122   61  129 1    
   123   62   63 2    
   124   62   64 am   BACKBONE|DICT|INTERRES
   125   64   65 1    
   126   64  130 1    
   127   65   66 1    
   128   65   69 1    
   129   65  131 1    
   130   66   67 am   BACKBONE|DICT|INTERRES
   131   66   68 2    
   132   67  132 1    
   133   67  133 1    
   134   69   70 1    
   135   69  134 1    
   136   69  135 1    
   137   70   71 1    
   138   71  136 1    
   139   71  137 1    
@<TRIPOS>SUBSTRUCTURE
     1 UNK         1 GROUP             0       ****    0 ROOT    
