@<TRIPOS>MOLECULE
3R136
137   139    1
SMALL
USER_CHARGES


@<TRIPOS>ATOM
      1 CA         29.8599   23.9759    5.2597 C.3       0 UNK        -0.1979 
      2 C          29.1758   22.8920    4.4403 C.2       0 UNK         0.4864 
      3 O          28.4885   22.0425    5.0093 O.2       0 UNK        -0.5359 
      4 N          29.3614   22.9241    3.1145 N.am      1 UNK        -0.4318 
      5 CA         28.7299   22.0181    2.1510 C.3       1 UNK         0.0824 
      6 C6         29.7148   21.5817    1.0332 C.3       12 UNK        -0.0944 
      7 S7         31.1138   20.6292    1.7109 S.3       12 UNK        -0.2672 
      8 C8         32.4693   21.1083    0.5943 C.3       12 UNK         0.0333 
      9 C9         32.8948   22.5608    0.7687 C.ar      12 UNK        -0.0807 
     10 C10        33.4675   22.9868    1.9716 C.ar      12 UNK        -0.0894 
     11 C11        33.9114   24.3038    2.1187 C.ar      12 UNK        -0.0804 
     12 C12        33.8003   25.1891    1.0439 C.ar      12 UNK        -0.0824 
     13 C13        33.1991   24.7884   -0.1528 C.ar      12 UNK        -0.0762 
     14 C14        32.7506   23.4703   -0.2851 C.ar      12 UNK        -0.0782 
     15 C15        33.0671   25.7672   -1.3140 C.3       12 UNK         0.0230 
     16 S16        32.3342   27.3622   -0.8204 S.3       12 UNK        -0.2608 
     17 C17        30.6009   26.8966   -0.5161 C.3       12 UNK        -0.0989 
     18 CA         29.7492   28.1146   -0.0586 C.3       5 UNK         0.0716 
     19 N          28.4213   28.0967   -0.6792 N.am      5 UNK        -0.4135 
     20 C          27.9373   29.0399   -1.5007 C.2       4 UNK         0.5031 
     21 O          28.5490   30.0635   -1.8097 O.2       4 UNK        -0.5229 
     22 CA         26.5416   28.8055   -2.1141 C.3       4 UNK         0.0329 
     23 CB         26.6729   28.2751   -3.5515 C.3       4 UNK        -0.2001 
     24 N          25.7161   27.8777   -1.3403 N.am      4 UNK        -0.4303 
     25 C          25.1500   28.1637   -0.1604 C.2       3 UNK         0.5044 
     26 O          25.1424   29.2912    0.3322 O.2       3 UNK        -0.5152 
     27 CA         24.4900   27.0011    0.6096 C.3       3 UNK         0.0319 
     28 CB         22.9582   27.1253    0.5572 C.3       3 UNK        -0.2001 
     29 N          24.8726   25.6514    0.1672 N.am      3 UNK        -0.4354 
     30 C          26.1135   25.1452    0.1693 C.2       2 UNK         0.4964 
     31 O          27.1204   25.7946    0.4628 O.2       2 UNK        -0.5047 
     32 CA         26.2626   23.6951   -0.3146 C.3       2 UNK         0.0288 
     33 CB         26.4733   23.6677   -1.8375 C.3       2 UNK        -0.2113 
     34 N          27.3901   23.0205    0.3317 N.am      2 UNK        -0.4145 
     35 C          27.4359   22.6786    1.6280 C.2       1 UNK         0.5006 
     36 O          26.4943   22.8566    2.4040 O.2       1 UNK        -0.5103 
     37 C          29.6392   28.1964    1.4774 C.2       5 UNK         0.5055 
     38 O          30.4099   28.9277    2.1002 O.2       5 UNK        -0.5220 
     39 N          28.6871   27.4526    2.0596 N.am      6 UNK        -0.4450 
     40 CA         28.3868   27.4294    3.4909 C.3       6 UNK         0.0367 
     41 CB         27.4262   26.2635    3.7751 C.3       6 UNK        -0.1929 
     42 C          27.7663   28.7468    3.9810 C.2       6 UNK         0.5070 
     43 O          27.0100   29.3791    3.2418 O.2       6 UNK        -0.5237 
     44 N          28.0608   29.0937    5.2422 N.am      7 UNK        -0.4739 
     45 CA         27.6022   30.2887    5.9648 C.3       7 UNK         0.0276 
     46 CB         26.0754   30.2505    6.1923 C.3       7 UNK        -0.1927 
     47 C          28.0873   31.5957    5.3079 C.2       7 UNK         0.5013 
     48 O          27.3386   32.5719    5.2275 O.2       7 UNK        -0.5193 
     49 N          29.3426   31.5807    4.8526 N.am      8 UNK        -0.4253 
     50 CA         30.0419   32.6852    4.2070 C.3       8 UNK         0.0242 
     51 CB         29.7962   32.6218    2.6872 C.3       8 UNK        -0.2000 
     52 C          31.5324   32.5639    4.5415 C.2       8 UNK         0.4948 
     53 O          31.9474   31.5648    5.1320 O.2       8 UNK        -0.5275 
     54 N          32.3320   33.5542    4.1236 N.am      9 UNK        -0.4246 
     55 CA         33.7879   33.5961    4.3292 C.3       9 UNK         0.0261 
     56 CB         34.3378   34.9221    3.7780 C.3       9 UNK        -0.1959 
     57 C          34.5596   32.4021    3.7279 C.2       9 UNK         0.5033 
     58 O          35.6628   32.1049    4.1886 O.2       9 UNK        -0.5390 
     59 N          33.9683   31.7393    2.7248 N.am      10 UNK        -0.4215 
     60 CA         34.4936   30.5323    2.0911 C.3       10 UNK         0.0240 
     61 CB         33.7867   30.3278    0.7425 C.3       10 UNK        -0.1982 
     62 C          34.3719   29.2650    2.9592 C.2       10 UNK         0.4970 
     63 O          35.1829   28.3570    2.7726 O.2       10 UNK        -0.4916 
     64 N          33.3898   29.2031    3.8714 N.am      11 UNK        -0.4279 
     65 CA         33.1381   28.0451    4.7380 C.3       11 UNK         0.1003 
     66 C          32.1962   28.4385    5.9032 C.2       11 UNK         0.5709 
     67 N          32.6990   28.4786    7.1296 N.am      11 UNK        -0.7358 
     68 O          31.0047   28.6759    5.7099 O.2       11 UNK        -0.4999 
     69 C69        32.6125   26.8074    3.9524 C.3       12 UNK        -0.0954 
     70 S70        33.2350   25.2368    4.6418 S.3       12 UNK        -0.2268 
     71 C71        34.5169   24.7697    3.4349 C.3       12 UNK         0.0203 
     72 H72        30.2256   24.7858    4.6301 H         1 UNK         0.0888 
     73 H73        30.7051   23.5579    5.8059 H         1 UNK         0.0888 
     74 H74        29.1629   24.4018    5.9809 H         1 UNK         0.0888 
     75 H75        29.9504   23.6399    2.7149 H         1 UNK         0.3017 
     76 H76        28.4090   21.1090    2.6646 H         1 UNK         0.0873 
     77 H77        29.2155   20.9435    0.3015 H         1 UNK         0.0745 
     78 H78        30.0940   22.4495    0.4915 H         1 UNK         0.0745 
     79 H79        33.3278   20.4653    0.7929 H         1 UNK         0.0705 
     80 H80        32.1702   20.9066   -0.4356 H         1 UNK         0.0705 
     81 H81        33.5674   22.2911    2.7938 H         1 UNK         0.1334 
     82 H82        34.1661   26.2023    1.1438 H         1 UNK         0.1417 
     83 H83        32.3066   23.1460   -1.2167 H         1 UNK         0.1562 
     84 H84        32.4739   25.3398   -2.1240 H         1 UNK         0.0748 
     85 H85        34.0604   25.9530   -1.7243 H         1 UNK         0.0748 
     86 H86        30.5600   26.0694    0.1963 H         1 UNK         0.0940 
     87 H87        30.2166   26.4927   -1.4544 H         1 UNK         0.0940 
     88 H88        30.2602   29.0298   -0.3656 H         1 UNK         0.0703 
     89 H89        27.8358   27.2994   -0.4511 H         1 UNK         0.3081 
     90 H90        26.0323   29.7711   -2.1513 H         1 UNK         0.0719 
     91 H91        27.1692   27.3041   -3.5813 H         1 UNK         0.0809 
     92 H92        25.6976   28.1698   -4.0270 H         1 UNK         0.0809 
     93 H93        27.2588   28.9590   -4.1674 H         1 UNK         0.0809 
     94 H94        25.6462   26.9312   -1.6835 H         1 UNK         0.2990 
     95 H95        24.8025   27.1013    1.6508 H         1 UNK         0.0690 
     96 H96        22.4764   26.3784    1.1886 H         1 UNK         0.0788 
     97 H97        22.5784   27.0051   -0.4582 H         1 UNK         0.0788 
     98 H98        22.6319   28.1037    0.9132 H         1 UNK         0.0788 
     99 H99        24.1126   25.0526   -0.1238 H         1 UNK         0.2993 
    100 H100       25.3507   23.1455   -0.0705 H         1 UNK         0.0949 
    101 H101       27.3745   24.2082   -2.1313 H         1 UNK         0.0767 
    102 H102       26.5601   22.6457   -2.2073 H         1 UNK         0.0767 
    103 H103       25.6326   24.1266   -2.3599 H         1 UNK         0.0767 
    104 H104       28.2076   22.8696   -0.2394 H         1 UNK         0.3013 
    105 H105       28.0875   26.8742    1.4750 H         1 UNK         0.3121 
    106 H106       29.3185   27.2558    4.0293 H         1 UNK         0.0774 
    107 H107       27.2710   26.1348    4.8469 H         1 UNK         0.0815 
    108 H108       26.4483   26.4289    3.3220 H         1 UNK         0.0815 
    109 H109       27.8108   25.3235    3.3842 H         1 UNK         0.0815 
    110 H110       28.7624   28.5440    5.7253 H         1 UNK         0.2987 
    111 H111       28.0795   30.2533    6.9455 H         1 UNK         0.0949 
    112 H112       25.5226   30.3468    5.2574 H         1 UNK         0.0806 
    113 H113       25.7682   29.3202    6.6699 H         1 UNK         0.0806 
    114 H114       25.7575   31.0674    6.8413 H         1 UNK         0.0806 
    115 H115       29.9184   30.7604    5.0159 H         1 UNK         0.3010 
    116 H116       29.6799   33.6354    4.6053 H         1 UNK         0.0829 
    117 H117       28.7313   32.6694    2.4580 H         1 UNK         0.0813 
    118 H118       30.2727   33.4539    2.1683 H         1 UNK         0.0813 
    119 H119       30.1840   31.6976    2.2562 H         1 UNK         0.0813 
    120 H120       31.9211   34.3424    3.6431 H         1 UNK         0.3038 
    121 H121       33.9633   33.5759    5.4070 H         1 UNK         0.0769 
    122 H122       34.1645   35.0164    2.7052 H         1 UNK         0.0811 
    123 H123       35.4140   34.9968    3.9414 H         1 UNK         0.0811 
    124 H124       33.8787   35.7793    4.2708 H         1 UNK         0.0811 
    125 H125       33.0651   32.0620    2.4116 H         1 UNK         0.3204 
    126 H126       35.5560   30.6914    1.8935 H         1 UNK         0.0748 
    127 H127       34.2130   29.4765    0.2105 H         1 UNK         0.0771 
    128 H128       32.7206   30.1325    0.8695 H         1 UNK         0.0771 
    129 H129       33.8971   31.1983    0.0957 H         1 UNK         0.0771 
    130 H130       32.7804   29.9991    4.0298 H         1 UNK         0.2980 
    131 H131       34.1079   27.7900    5.1711 H         1 UNK         0.0545 
    132 H132       33.6707   28.2758    7.3034 H         1 UNK         0.3459 
    133 H133       32.0931   28.7266    7.8952 H         1 UNK         0.3459 
    134 H134       32.8921   26.8692    2.9042 H         1 UNK         0.0616 
    135 H135       31.5244   26.7709    3.9328 H         1 UNK         0.0616 
    136 H136       35.1905   25.6130    3.2753 H         1 UNK         0.0634 
    137 H137       35.1245   23.9699    3.8605 H         1 UNK         0.0634 
@<TRIPOS>BOND
     1    1    2 1    
     2    1   72 1    
     3    1   73 1    
     4    1   74 1    
     5    2    3 2    
     6    2    4 am   BACKBONE|DICT|INTERRES
     7    4    5 1    
     8    4   75 1    
     9    5    6 1    
    10    5   35 1    
    11    5   76 1    
    12    6    7 1    
    13    6   77 1    
    14    6   78 1    
    15    7    8 1    
    16    8    9 1    
    17    8   79 1    
    18    8   80 1    
    19    9   10 ar   
    20    9   14 ar   
    21   10   11 ar   
    22   10   81 1    
    23   11   12 ar   
    24   11   71 1    
    25   12   13 ar   
    26   12   82 1    
    27   13   14 ar   
    28   13   15 1    
    29   14   83 1    
    30   15   16 1    
    31   15   84 1    
    32   15   85 1    
    33   16   17 1    
    34   17   18 1    
    35   17   86 1    
    36   17   87 1    
    37   18   19 1    
    38   18   37 1    
    39   18   88 1    
    40   19   20 am   BACKBONE|DICT|INTERRES
    41   19   89 1    
    42   20   21 2    
    43   20   22 1    
    44   22   23 1    
    45   22   24 1    
    46   22   90 1    
    47   23   91 1    
    48   23   92 1    
    49   23   93 1    
    50   24   25 am   BACKBONE|DICT|INTERRES
    51   24   94 1    
    52   25   26 2    
    53   25   27 1    
    54   27   28 1    
    55   27   29 1    
    56   27   95 1    
    57   28   96 1    
    58   28   97 1    
    59   28   98 1    
    60   29   30 am   BACKBONE|DICT|INTERRES
    61   29   99 1    
    62   30   31 2    
    63   30   32 1    
    64   32   33 1    
    65   32   34 1    
    66   32  100 1    
    67   33  101 1    
    68   33  102 1    
    69   33  103 1    
    70   34   35 am   BACKBONE|DICT|INTERRES
    71   34  104 1    
    72   35   36 2    
    73   37   38 2    
    74   37   39 am   BACKBONE|DICT|INTERRES
    75   39   40 1    
    76   39  105 1    
    77   40   41 1    
    78   40   42 1    
    79   40  106 1    
    80   41  107 1    
    81   41  108 1    
    82   41  109 1    
    83   42   43 2    
    84   42   44 am   BACKBONE|DICT|INTERRES
    85   44   45 1    
    86   44  110 1    
    87   45   46 1    
    88   45   47 1    
    89   45  111 1    
    90   46  112 1    
    91   46  113 1    
    92   46  114 1    
    93   47   48 2    
    94   47   49 am   BACKBONE|DICT|INTERRES
    95   49   50 1    
    96   49  115 1    
    97   50   51 1    
    98   50   52 1    
    99   50  116 1    
   100   51  117 1    
   101   51  118 1    
   102   51  119 1    
   103   52   53 2    
   104   52   54 am   BACKBONE|DICT|INTERRES
   105   54   55 1    
   106   54  120 1    
   107   55   56 1    
   108   55   57 1    
   109   55  121 1    
   110   56  122 1    
   111   56  123 1    
   112   56  124 1    
   113   57   58 2    
   114   57   59 am   BACKBONE|DICT|INTERRES
   115   59   60 1    
   116   59  125 1    
   117   60   61 1    
   118   60   62 1    
   119   60  126 1    
   120   61  127 1    
   121   61  128 1    
   122   61  129 1    
   123   62   63 2    
   124   62   64 am   BACKBONE|DICT|INTERRES
   125   64   65 1    
   126   64  130 1    
   127   65   66 1    
   128   65   69 1    
   129   65  131 1    
   130   66   67 am   BACKBONE|DICT|INTERRES
   131   66   68 2    
   132   67  132 1    
   133   67  133 1    
   134   69   70 1    
   135   69  134 1    
   136   69  135 1    
   137   70   71 1    
   138   71  136 1    
   139   71  137 1    
@<TRIPOS>SUBSTRUCTURE
     1 UNK         1 GROUP             0       ****    0 ROOT    
