@<TRIPOS>MOLECULE
3R136
137   139    1
SMALL
USER_CHARGES


@<TRIPOS>ATOM
      1 CA         27.1546   19.9002    2.7378 C.3       0 UNK        -0.1979 
      2 C          27.3542   21.0668    1.7830 C.2       0 UNK         0.4864 
      3 O          26.4094   21.8150    1.5254 O.2       0 UNK        -0.5359 
      4 N          28.5802   21.2429    1.2676 N.am      1 UNK        -0.4318 
      5 CA         28.9559   22.3023    0.3205 C.3       1 UNK         0.0824 
      6 C6         30.4105   22.1586   -0.1892 C.3       12 UNK        -0.0944 
      7 S7         31.6681   22.1676    1.1370 S.3       12 UNK        -0.2672 
      8 C8         32.9009   23.3329    0.4759 C.3       12 UNK         0.0333 
      9 C9         32.5194   24.7939    0.6850 C.ar      12 UNK        -0.0807 
     10 C10        32.6446   25.3715    1.9516 C.ar      12 UNK        -0.0894 
     11 C11        32.4117   26.7377    2.1393 C.ar      12 UNK        -0.0804 
     12 C12        32.0432   27.5279    1.0455 C.ar      12 UNK        -0.0824 
     13 C13        31.8865   26.9591   -0.2236 C.ar      12 UNK        -0.0762 
     14 C14        32.1227   25.5897   -0.3951 C.ar      12 UNK        -0.0782 
     15 C15        31.5147   27.8254   -1.4250 C.3       12 UNK         0.0230 
     16 S16        30.0001   28.8100   -1.1703 S.3       12 UNK        -0.2608 
     17 C17        28.7825   27.5145   -0.7651 C.3       12 UNK        -0.0989 
     18 CA         27.3760   27.6892   -1.3988 C.3       5 UNK         0.0716 
     19 N          26.6295   26.4437   -1.2330 N.am      5 UNK        -0.4135 
     20 C          25.4506   26.1242   -1.7772 C.2       4 UNK         0.5031 
     21 O          24.8562   26.8194   -2.6025 O.2       4 UNK        -0.5229 
     22 CA         24.8363   24.7915   -1.3120 C.3       4 UNK         0.0329 
     23 CB         25.4336   23.6126   -2.0977 C.3       4 UNK        -0.2001 
     24 N          25.0298   24.5666    0.1245 N.am      4 UNK        -0.4303 
     25 C          24.3399   25.1931    1.0895 C.2       3 UNK         0.5044 
     26 O          23.4052   25.9646    0.8709 O.2       3 UNK        -0.5152 
     27 CA         24.7469   24.9077    2.5452 C.3       3 UNK         0.0319 
     28 CB         23.9585   23.7118    3.1037 C.3       3 UNK        -0.2001 
     29 N          26.1834   24.6534    2.6792 N.am      3 UNK        -0.4354 
     30 C          27.1081   25.6167    2.8208 C.2       2 UNK         0.4964 
     31 O          26.8374   26.8127    2.9208 O.2       2 UNK        -0.5047 
     32 CA         28.5889   25.1884    2.8608 C.3       2 UNK         0.0288 
     33 CB         29.0682   25.0536    4.3152 C.3       2 UNK        -0.2113 
     34 N          28.8760   23.9395    2.1533 N.am      2 UNK        -0.4145 
     35 C          28.6714   23.7219    0.8467 C.2       1 UNK         0.5006 
     36 O          28.2058   24.5603    0.0787 O.2       1 UNK        -0.5103 
     37 C          26.6198   28.8880   -0.7816 C.2       5 UNK         0.5055 
     38 O          25.7882   28.7158    0.1120 O.2       5 UNK        -0.5220 
     39 N          26.9933   30.0994   -1.2157 N.am      6 UNK        -0.4450 
     40 CA         26.6245   31.3729   -0.5829 C.3       6 UNK         0.0367 
     41 CB         26.8610   32.5104   -1.5915 C.3       6 UNK        -0.1929 
     42 C          27.3843   31.6440    0.7378 C.2       6 UNK         0.5070 
     43 O          27.1212   32.6623    1.3784 O.2       6 UNK        -0.5237 
     44 N          28.2979   30.7322    1.1022 N.am      7 UNK        -0.4739 
     45 CA         29.2354   30.7168    2.2271 C.3       7 UNK         0.0276 
     46 CB         28.5622   31.0625    3.5717 C.3       7 UNK        -0.1927 
     47 C          30.4863   31.5674    1.9594 C.2       7 UNK         0.5013 
     48 O          30.4983   32.4203    1.0684 O.2       7 UNK        -0.5193 
     49 N          31.5331   31.2916    2.7394 N.am      8 UNK        -0.4253 
     50 CA         32.8428   31.9297    2.6849 C.3       8 UNK         0.0242 
     51 CB         33.7185   31.2128    1.6390 C.3       8 UNK        -0.2000 
     52 C          33.4650   31.8470    4.0825 C.2       8 UNK         0.4948 
     53 O          32.9548   31.1138    4.9327 O.2       8 UNK        -0.5275 
     54 N          34.5835   32.5547    4.2907 N.am      9 UNK        -0.4246 
     55 CA         35.3243   32.6149    5.5609 C.3       9 UNK         0.0261 
     56 CB         36.5001   33.5945    5.4112 C.3       9 UNK        -0.1959 
     57 C          35.8229   31.2552    6.0948 C.2       9 UNK         0.5033 
     58 O          36.0774   31.1363    7.2939 O.2       9 UNK        -0.5390 
     59 N          35.9421   30.2585    5.2076 N.am      10 UNK        -0.4215 
     60 CA         36.2656   28.8706    5.5369 C.3       10 UNK         0.0240 
     61 CB         36.7177   28.1505    4.2547 C.3       10 UNK        -0.1982 
     62 C          35.1082   28.0980    6.2013 C.2       10 UNK         0.4970 
     63 O          35.3728   27.0573    6.8049 O.2       10 UNK        -0.4916 
     64 N          33.8607   28.5725    6.0617 N.am      11 UNK        -0.4279 
     65 CA         32.6683   27.9237    6.6261 C.3       11 UNK         0.1003 
     66 C          32.5959   28.1027    8.1680 C.2       11 UNK         0.5709 
     67 N          32.0865   27.1092    8.8843 N.am      11 UNK        -0.7358 
     68 O          32.9557   29.1432    8.7162 O.2       11 UNK        -0.4999 
     69 C69        31.3524   28.4149    5.9587 C.3       12 UNK        -0.0954 
     70 S70        31.0616   28.0367    4.1866 S.3       12 UNK        -0.2268 
     71 C71        32.6124   27.3620    3.5129 C.3       12 UNK         0.0203 
     72 H72        26.3979   19.2217    2.3451 H         1 UNK         0.0888 
     73 H73        28.0737   19.3343    2.8882 H         1 UNK         0.0888 
     74 H74        26.8162   20.2639    3.7076 H         1 UNK         0.0888 
     75 H75        29.3251   20.6107    1.5262 H         1 UNK         0.3017 
     76 H76        28.3035   22.1717   -0.5457 H         1 UNK         0.0873 
     77 H77        30.6312   22.9407   -0.9182 H         1 UNK         0.0745 
     78 H78        30.5127   21.2189   -0.7343 H         1 UNK         0.0745 
     79 H79        33.0748   23.1207   -0.5803 H         1 UNK         0.0705 
     80 H80        33.8520   23.1447    0.9761 H         1 UNK         0.0705 
     81 H81        32.9552   24.7571    2.7857 H         1 UNK         0.1334 
     82 H82        31.8800   28.5881    1.1815 H         1 UNK         0.1417 
     83 H83        32.0323   25.1485   -1.3783 H         1 UNK         0.1562 
     84 H84        31.3841   27.2143   -2.3195 H         1 UNK         0.0748 
     85 H85        32.3414   28.5047   -1.6364 H         1 UNK         0.0748 
     86 H86        28.7143   27.4227    0.3212 H         1 UNK         0.0940 
     87 H87        29.2050   26.5710   -1.1129 H         1 UNK         0.0940 
     88 H88        27.4847   27.8635   -2.4713 H         1 UNK         0.0703 
     89 H89        27.0591   25.7659   -0.6069 H         1 UNK         0.3081 
     90 H90        23.7639   24.8273   -1.5161 H         1 UNK         0.0719 
     91 H91        25.2726   23.7381   -3.1693 H         1 UNK         0.0809 
     92 H92        26.5086   23.5211   -1.9383 H         1 UNK         0.0809 
     93 H93        24.9709   22.6687   -1.8087 H         1 UNK         0.0809 
     94 H94        25.7677   23.9305    0.3962 H         1 UNK         0.2990 
     95 H95        24.4834   25.7850    3.1403 H         1 UNK         0.0690 
     96 H96        24.2136   23.5201    4.1460 H         1 UNK         0.0788 
     97 H97        24.1480   22.7989    2.5382 H         1 UNK         0.0788 
     98 H98        22.8851   23.9016    3.0625 H         1 UNK         0.0788 
     99 H99        26.4828   23.6914    2.5683 H         1 UNK         0.2993 
    100 H100       29.1697   25.9788    2.3796 H         1 UNK         0.0949 
    101 H101       28.8680   25.9662    4.8785 H         1 UNK         0.0767 
    102 H102       28.5672   24.2346    4.8327 H         1 UNK         0.0767 
    103 H103       30.1434   24.8779    4.3617 H         1 UNK         0.0767 
    104 H104       29.2648   23.1851    2.6999 H         1 UNK         0.3013 
    105 H105       27.7008   30.1502   -1.9363 H         1 UNK         0.3121 
    106 H106       25.5596   31.3446   -0.3424 H         1 UNK         0.0774 
    107 H107       26.5456   33.4701   -1.1797 H         1 UNK         0.0815 
    108 H108       27.9154   32.6013   -1.8555 H         1 UNK         0.0815 
    109 H109       26.2945   32.3533   -2.5095 H         1 UNK         0.0815 
    110 H110       28.4436   29.9796    0.4443 H         1 UNK         0.2987 
    111 H111       29.5693   29.6801    2.2843 H         1 UNK         0.0949 
    112 H112       29.2276   30.8464    4.4084 H         1 UNK         0.0806 
    113 H113       27.6560   30.4758    3.7232 H         1 UNK         0.0806 
    114 H114       28.2979   32.1181    3.6374 H         1 UNK         0.0806 
    115 H115       31.4359   30.6329    3.5044 H         1 UNK         0.3010 
    116 H116       32.7275   32.9832    2.4205 H         1 UNK         0.0829 
    117 H117       33.8804   30.1655    1.8971 H         1 UNK         0.0813 
    118 H118       33.2585   31.2425    0.6509 H         1 UNK         0.0813 
    119 H119       34.6977   31.6841    1.5491 H         1 UNK         0.0813 
    120 H120       34.9432   33.1223    3.5361 H         1 UNK         0.3038 
    121 H121       34.6409   33.0155    6.3127 H         1 UNK         0.0769 
    122 H122       37.0542   33.6864    6.3466 H         1 UNK         0.0811 
    123 H123       36.1550   34.5936    5.1442 H         1 UNK         0.0811 
    124 H124       37.2050   33.2652    4.6467 H         1 UNK         0.0811 
    125 H125       35.7270   30.4596    4.2426 H         1 UNK         0.3204 
    126 H126       37.1009   28.8721    6.2405 H         1 UNK         0.0748 
    127 H127       37.0001   27.1178    4.4650 H         1 UNK         0.0771 
    128 H128       35.9274   28.1245    3.5034 H         1 UNK         0.0771 
    129 H129       37.5873   28.6366    3.8118 H         1 UNK         0.0771 
    130 H130       33.7010   29.4707    5.6154 H         1 UNK         0.2980 
    131 H131       32.7517   26.8520    6.4374 H         1 UNK         0.0545 
    132 H132       31.7752   26.2559    8.4472 H         1 UNK         0.3459 
    133 H133       32.0170   27.2133    9.8845 H         1 UNK         0.3459 
    134 H134       30.4979   27.9858    6.4854 H         1 UNK         0.0616 
    135 H135       31.2514   29.4934    6.0874 H         1 UNK         0.0616 
    136 H136       33.3474   28.1629    3.4317 H         1 UNK         0.0634 
    137 H137       33.0205   26.6181    4.1965 H         1 UNK         0.0634 
@<TRIPOS>BOND
     1    1    2 1    
     2    1   72 1    
     3    1   73 1    
     4    1   74 1    
     5    2    3 2    
     6    2    4 am   BACKBONE|DICT|INTERRES
     7    4    5 1    
     8    4   75 1    
     9    5    6 1    
    10    5   35 1    
    11    5   76 1    
    12    6    7 1    
    13    6   77 1    
    14    6   78 1    
    15    7    8 1    
    16    8    9 1    
    17    8   79 1    
    18    8   80 1    
    19    9   10 ar   
    20    9   14 ar   
    21   10   11 ar   
    22   10   81 1    
    23   11   12 ar   
    24   11   71 1    
    25   12   13 ar   
    26   12   82 1    
    27   13   14 ar   
    28   13   15 1    
    29   14   83 1    
    30   15   16 1    
    31   15   84 1    
    32   15   85 1    
    33   16   17 1    
    34   17   18 1    
    35   17   86 1    
    36   17   87 1    
    37   18   19 1    
    38   18   37 1    
    39   18   88 1    
    40   19   20 am   BACKBONE|DICT|INTERRES
    41   19   89 1    
    42   20   21 2    
    43   20   22 1    
    44   22   23 1    
    45   22   24 1    
    46   22   90 1    
    47   23   91 1    
    48   23   92 1    
    49   23   93 1    
    50   24   25 am   BACKBONE|DICT|INTERRES
    51   24   94 1    
    52   25   26 2    
    53   25   27 1    
    54   27   28 1    
    55   27   29 1    
    56   27   95 1    
    57   28   96 1    
    58   28   97 1    
    59   28   98 1    
    60   29   30 am   BACKBONE|DICT|INTERRES
    61   29   99 1    
    62   30   31 2    
    63   30   32 1    
    64   32   33 1    
    65   32   34 1    
    66   32  100 1    
    67   33  101 1    
    68   33  102 1    
    69   33  103 1    
    70   34   35 am   BACKBONE|DICT|INTERRES
    71   34  104 1    
    72   35   36 2    
    73   37   38 2    
    74   37   39 am   BACKBONE|DICT|INTERRES
    75   39   40 1    
    76   39  105 1    
    77   40   41 1    
    78   40   42 1    
    79   40  106 1    
    80   41  107 1    
    81   41  108 1    
    82   41  109 1    
    83   42   43 2    
    84   42   44 am   BACKBONE|DICT|INTERRES
    85   44   45 1    
    86   44  110 1    
    87   45   46 1    
    88   45   47 1    
    89   45  111 1    
    90   46  112 1    
    91   46  113 1    
    92   46  114 1    
    93   47   48 2    
    94   47   49 am   BACKBONE|DICT|INTERRES
    95   49   50 1    
    96   49  115 1    
    97   50   51 1    
    98   50   52 1    
    99   50  116 1    
   100   51  117 1    
   101   51  118 1    
   102   51  119 1    
   103   52   53 2    
   104   52   54 am   BACKBONE|DICT|INTERRES
   105   54   55 1    
   106   54  120 1    
   107   55   56 1    
   108   55   57 1    
   109   55  121 1    
   110   56  122 1    
   111   56  123 1    
   112   56  124 1    
   113   57   58 2    
   114   57   59 am   BACKBONE|DICT|INTERRES
   115   59   60 1    
   116   59  125 1    
   117   60   61 1    
   118   60   62 1    
   119   60  126 1    
   120   61  127 1    
   121   61  128 1    
   122   61  129 1    
   123   62   63 2    
   124   62   64 am   BACKBONE|DICT|INTERRES
   125   64   65 1    
   126   64  130 1    
   127   65   66 1    
   128   65   69 1    
   129   65  131 1    
   130   66   67 am   BACKBONE|DICT|INTERRES
   131   66   68 2    
   132   67  132 1    
   133   67  133 1    
   134   69   70 1    
   135   69  134 1    
   136   69  135 1    
   137   70   71 1    
   138   71  136 1    
   139   71  137 1    
@<TRIPOS>SUBSTRUCTURE
     1 UNK         1 GROUP             0       ****    0 ROOT    
