@<TRIPOS>MOLECULE
3R136
137   139    1
SMALL
USER_CHARGES


@<TRIPOS>ATOM
      1 CA         29.1514   28.1343    7.1854 C.3       0 UNK        -0.1979 
      2 C          28.6788   26.8847    6.4585 C.2       0 UNK         0.4864 
      3 O          27.6078   26.3639    6.7717 O.2       0 UNK        -0.5359 
      4 N          29.4768   26.3982    5.4999 N.am      1 UNK        -0.4318 
      5 CA         29.2118   25.2112    4.6815 C.3       1 UNK         0.0824 
      6 C6         30.4698   24.8413    3.8646 C.3       12 UNK        -0.0944 
      7 S7         30.4612   23.1526    3.1778 S.3       12 UNK        -0.2672 
      8 C8         30.5465   23.4907    1.3829 C.3       12 UNK         0.0333 
      9 C9         31.7258   24.3623    0.9400 C.ar      12 UNK        -0.0807 
     10 C10        32.9510   24.3605    1.6195 C.ar      12 UNK        -0.0894 
     11 C11        33.9970   25.1895    1.2063 C.ar      12 UNK        -0.0804 
     12 C12        33.8222   26.0089    0.0888 C.ar      12 UNK        -0.0824 
     13 C13        32.6116   26.0247   -0.6099 C.ar      12 UNK        -0.0762 
     14 C14        31.5709   25.1891   -0.1776 C.ar      12 UNK        -0.0782 
     15 C15        32.4988   26.9628   -1.8150 C.3       12 UNK         0.0230 
     16 S16        30.8911   26.9887   -2.6789 S.3       12 UNK        -0.2608 
     17 C17        29.8633   27.9533   -1.5180 C.3       12 UNK        -0.0989 
     18 CA         28.4683   28.2672   -2.1209 C.3       5 UNK         0.0716 
     19 N          27.7377   27.0349   -2.4207 N.am      5 UNK        -0.4135 
     20 C          27.1266   26.7516   -3.5770 C.2       4 UNK         0.5031 
     21 O          27.0886   27.5202   -4.5396 O.2       4 UNK        -0.5229 
     22 CA         26.4611   25.3669   -3.7078 C.3       4 UNK         0.0329 
     23 CB         27.3401   24.4318   -4.5550 C.3       4 UNK        -0.2001 
     24 N          26.1933   24.7249   -2.4189 N.am      4 UNK        -0.4303 
     25 C          25.2065   25.0772   -1.5854 C.2       3 UNK         0.5044 
     26 O          24.3570   25.9288   -1.8508 O.2       3 UNK        -0.5152 
     27 CA         25.1611   24.3827   -0.2122 C.3       3 UNK         0.0319 
     28 CB         25.9838   23.0751   -0.1261 C.3       3 UNK        -0.2001 
     29 N          25.5459   25.3167    0.8502 N.am      3 UNK        -0.4354 
     30 C          26.7247   25.9427    0.9916 C.2       2 UNK         0.4964 
     31 O          27.6916   25.7663    0.2461 O.2       2 UNK        -0.5047 
     32 CA         26.8556   26.9474    2.1546 C.3       2 UNK         0.0288 
     33 CB         25.5334   27.2547    2.8948 C.3       2 UNK        -0.2113 
     34 N          27.8970   26.5495    3.1048 N.am      2 UNK        -0.4145 
     35 C          27.9775   25.3882    3.7749 C.2       1 UNK         0.5006 
     36 O          27.1325   24.4922    3.7206 O.2       1 UNK        -0.5103 
     37 C          27.6290   29.1473   -1.1740 C.2       5 UNK         0.5055 
     38 O          26.5513   28.7440   -0.7279 O.2       5 UNK        -0.5220 
     39 N          28.1401   30.3478   -0.8764 N.am      6 UNK        -0.4450 
     40 CA         27.5837   31.2512    0.1311 C.3       6 UNK         0.0367 
     41 CB         28.1818   32.6530   -0.0774 C.3       6 UNK        -0.1929 
     42 C          27.8834   30.7543    1.5555 C.2       6 UNK         0.5070 
     43 O          28.8476   30.0142    1.7664 O.2       6 UNK        -0.5237 
     44 N          27.1011   31.2377    2.5297 N.am      7 UNK        -0.4739 
     45 CA         27.2727   30.9639    3.9653 C.3       7 UNK         0.0276 
     46 CB         26.0659   31.5258    4.7334 C.3       7 UNK        -0.1927 
     47 C          28.5944   31.4900    4.5639 C.2       7 UNK         0.5013 
     48 O          28.9563   31.0911    5.6697 O.2       7 UNK        -0.5193 
     49 N          29.3077   32.3413    3.8132 N.am      8 UNK        -0.4253 
     50 CA         30.6714   32.7951    4.0893 C.3       8 UNK         0.0242 
     51 CB         31.0142   33.9471    3.1301 C.3       8 UNK        -0.2000 
     52 C          31.7352   31.6814    3.9946 C.2       8 UNK         0.4948 
     53 O          32.8534   31.8945    4.4677 O.2       8 UNK        -0.5275 
     54 N          31.3966   30.5218    3.4056 N.am      9 UNK        -0.4246 
     55 CA         32.2383   29.3233    3.3260 C.3       9 UNK         0.0261 
     56 CB         31.6421   28.3568    2.2854 C.3       9 UNK        -0.1959 
     57 C          32.4356   28.6501    4.7008 C.2       9 UNK         0.5033 
     58 O          31.9657   27.5325    4.9231 O.2       9 UNK        -0.5390 
     59 N          33.1352   29.3423    5.6084 N.am      10 UNK        -0.4215 
     60 CA         33.4850   28.8895    6.9611 C.3       10 UNK         0.0240 
     61 CB         34.0624   30.0763    7.7493 C.3       10 UNK        -0.1982 
     62 C          34.4543   27.6907    6.9940 C.2       10 UNK         0.4970 
     63 O          34.5865   27.0500    8.0371 O.2       10 UNK        -0.4916 
     64 N          35.0958   27.4042    5.8554 N.am      11 UNK        -0.4279 
     65 CA         35.8888   26.2004    5.5728 C.3       11 UNK         0.1003 
     66 C          35.1028   24.8578    5.6530 C.2       11 UNK         0.5709 
     67 N          33.7768   24.8600    5.5893 N.am      11 UNK        -0.7358 
     68 O          35.7123   23.7988    5.7806 O.2       11 UNK        -0.4999 
     69 C69        36.6334   26.3403    4.2158 C.3       12 UNK        -0.0954 
     70 S70        35.5274   26.8045    2.8344 S.3       12 UNK        -0.2268 
     71 C71        35.3090   25.2143    1.9765 C.3       12 UNK         0.0203 
     72 H72        29.4483   27.8879    8.2042 H         1 UNK         0.0888 
     73 H73        28.3478   28.8689    7.2316 H         1 UNK         0.0888 
     74 H74        30.0001   28.5999    6.6847 H         1 UNK         0.0888 
     75 H75        30.3689   26.8588    5.3146 H         1 UNK         0.3017 
     76 H76        28.9979   24.3922    5.3716 H         1 UNK         0.0873 
     77 H77        30.6462   25.5775    3.0796 H         1 UNK         0.0745 
     78 H78        31.3454   24.8949    4.5086 H         1 UNK         0.0745 
     79 H79        30.5978   22.5398    0.8515 H         1 UNK         0.0705 
     80 H80        29.6058   23.9591    1.0885 H         1 UNK         0.0705 
     81 H81        33.0894   23.7271    2.4845 H         1 UNK         0.1334 
     82 H82        34.6329   26.6517   -0.2275 H         1 UNK         0.1417 
     83 H83        30.6251   25.1762   -0.6999 H         1 UNK         0.1562 
     84 H84        33.2584   26.6732   -2.5424 H         1 UNK         0.0748 
     85 H85        32.7459   27.9789   -1.5035 H         1 UNK         0.0748 
     86 H86        30.4037   28.8706   -1.2790 H         1 UNK         0.0940 
     87 H87        29.7642   27.4072   -0.5779 H         1 UNK         0.0940 
     88 H88        28.6163   28.8432   -3.0368 H         1 UNK         0.0703 
     89 H89        27.6557   26.3885   -1.6424 H         1 UNK         0.3081 
     90 H90        25.5114   25.5076   -4.2287 H         1 UNK         0.0719 
     91 H91        28.3093   24.2546   -4.0865 H         1 UNK         0.0809 
     92 H92        26.8589   23.4662   -4.7115 H         1 UNK         0.0809 
     93 H93        27.5293   24.8608   -5.5401 H         1 UNK         0.0809 
     94 H94        26.8533   24.0259   -2.1095 H         1 UNK         0.2990 
     95 H95        24.1163   24.1234   -0.0350 H         1 UNK         0.0690 
     96 H96        25.8368   22.5898    0.8390 H         1 UNK         0.0788 
     97 H97        27.0551   23.2404   -0.2434 H         1 UNK         0.0788 
     98 H98        25.6712   22.3632   -0.8913 H         1 UNK         0.0788 
     99 H99        24.8164   25.5492    1.5090 H         1 UNK         0.2993 
    100 H100       27.1994   27.8763    1.7023 H         1 UNK         0.0949 
    101 H101       24.7755   27.6318    2.2066 H         1 UNK         0.0767 
    102 H102       25.1265   26.3771    3.3986 H         1 UNK         0.0767 
    103 H103       25.6817   28.0241    3.6523 H         1 UNK         0.0767 
    104 H104       28.6554   27.2063    3.2147 H         1 UNK         0.3013 
    105 H105       29.0346   30.6086   -1.2644 H         1 UNK         0.3121 
    106 H106       26.5007   31.3036   -0.0019 H         1 UNK         0.0774 
    107 H107       29.2633   32.6579    0.0658 H         1 UNK         0.0815 
    108 H108       27.7564   33.3729    0.6231 H         1 UNK         0.0815 
    109 H109       27.9757   33.0259   -1.0810 H         1 UNK         0.0815 
    110 H110       26.3391   31.8528    2.2794 H         1 UNK         0.2987 
    111 H111       27.2852   29.8796    4.0950 H         1 UNK         0.0949 
    112 H112       25.9877   32.6085    4.6266 H         1 UNK         0.0806 
    113 H113       25.1323   31.0836    4.3851 H         1 UNK         0.0806 
    114 H114       26.1451   31.3085    5.7997 H         1 UNK         0.0806 
    115 H115       28.9134   32.6146    2.9258 H         1 UNK         0.3010 
    116 H116       30.6966   33.1772    5.1120 H         1 UNK         0.0829 
    117 H117       30.3155   34.7769    3.2388 H         1 UNK         0.0813 
    118 H118       32.0121   34.3395    3.3316 H         1 UNK         0.0813 
    119 H119       30.9959   33.6246    2.0882 H         1 UNK         0.0813 
    120 H120       30.4655   30.4328    3.0118 H         1 UNK         0.3038 
    121 H121       33.2263   29.6211    2.9687 H         1 UNK         0.0769 
    122 H122       30.6317   28.0480    2.5519 H         1 UNK         0.0811 
    123 H123       32.2473   27.4534    2.1996 H         1 UNK         0.0811 
    124 H124       31.6004   28.8121    1.2960 H         1 UNK         0.0811 
    125 H125       33.4005   30.2912    5.3529 H         1 UNK         0.3204 
    126 H126       32.5634   28.5679    7.4505 H         1 UNK         0.0748 
    127 H127       34.2996   29.7884    8.7745 H         1 UNK         0.0771 
    128 H128       34.9796   30.4535    7.2950 H         1 UNK         0.0771 
    129 H129       33.3506   30.9005    7.8026 H         1 UNK         0.0771 
    130 H130       34.9142   27.9878    5.0532 H         1 UNK         0.2980 
    131 H131       36.6477   26.1414    6.3548 H         1 UNK         0.0545 
    132 H132       33.2816   23.9858    5.6519 H         1 UNK         0.3459 
    133 H133       33.2715   25.7253    5.4565 H         1 UNK         0.3459 
    134 H134       37.3878   27.1236    4.3019 H         1 UNK         0.0616 
    135 H135       37.1863   25.4323    3.9678 H         1 UNK         0.0616 
    136 H136       36.1443   25.0544    1.2935 H         1 UNK         0.0634 
    137 H137       35.3374   24.3978    2.6993 H         1 UNK         0.0634 
@<TRIPOS>BOND
     1    1    2 1    
     2    1   72 1    
     3    1   73 1    
     4    1   74 1    
     5    2    3 2    
     6    2    4 am   BACKBONE|DICT|INTERRES
     7    4    5 1    
     8    4   75 1    
     9    5    6 1    
    10    5   35 1    
    11    5   76 1    
    12    6    7 1    
    13    6   77 1    
    14    6   78 1    
    15    7    8 1    
    16    8    9 1    
    17    8   79 1    
    18    8   80 1    
    19    9   10 ar   
    20    9   14 ar   
    21   10   11 ar   
    22   10   81 1    
    23   11   12 ar   
    24   11   71 1    
    25   12   13 ar   
    26   12   82 1    
    27   13   14 ar   
    28   13   15 1    
    29   14   83 1    
    30   15   16 1    
    31   15   84 1    
    32   15   85 1    
    33   16   17 1    
    34   17   18 1    
    35   17   86 1    
    36   17   87 1    
    37   18   19 1    
    38   18   37 1    
    39   18   88 1    
    40   19   20 am   BACKBONE|DICT|INTERRES
    41   19   89 1    
    42   20   21 2    
    43   20   22 1    
    44   22   23 1    
    45   22   24 1    
    46   22   90 1    
    47   23   91 1    
    48   23   92 1    
    49   23   93 1    
    50   24   25 am   BACKBONE|DICT|INTERRES
    51   24   94 1    
    52   25   26 2    
    53   25   27 1    
    54   27   28 1    
    55   27   29 1    
    56   27   95 1    
    57   28   96 1    
    58   28   97 1    
    59   28   98 1    
    60   29   30 am   BACKBONE|DICT|INTERRES
    61   29   99 1    
    62   30   31 2    
    63   30   32 1    
    64   32   33 1    
    65   32   34 1    
    66   32  100 1    
    67   33  101 1    
    68   33  102 1    
    69   33  103 1    
    70   34   35 am   BACKBONE|DICT|INTERRES
    71   34  104 1    
    72   35   36 2    
    73   37   38 2    
    74   37   39 am   BACKBONE|DICT|INTERRES
    75   39   40 1    
    76   39  105 1    
    77   40   41 1    
    78   40   42 1    
    79   40  106 1    
    80   41  107 1    
    81   41  108 1    
    82   41  109 1    
    83   42   43 2    
    84   42   44 am   BACKBONE|DICT|INTERRES
    85   44   45 1    
    86   44  110 1    
    87   45   46 1    
    88   45   47 1    
    89   45  111 1    
    90   46  112 1    
    91   46  113 1    
    92   46  114 1    
    93   47   48 2    
    94   47   49 am   BACKBONE|DICT|INTERRES
    95   49   50 1    
    96   49  115 1    
    97   50   51 1    
    98   50   52 1    
    99   50  116 1    
   100   51  117 1    
   101   51  118 1    
   102   51  119 1    
   103   52   53 2    
   104   52   54 am   BACKBONE|DICT|INTERRES
   105   54   55 1    
   106   54  120 1    
   107   55   56 1    
   108   55   57 1    
   109   55  121 1    
   110   56  122 1    
   111   56  123 1    
   112   56  124 1    
   113   57   58 2    
   114   57   59 am   BACKBONE|DICT|INTERRES
   115   59   60 1    
   116   59  125 1    
   117   60   61 1    
   118   60   62 1    
   119   60  126 1    
   120   61  127 1    
   121   61  128 1    
   122   61  129 1    
   123   62   63 2    
   124   62   64 am   BACKBONE|DICT|INTERRES
   125   64   65 1    
   126   64  130 1    
   127   65   66 1    
   128   65   69 1    
   129   65  131 1    
   130   66   67 am   BACKBONE|DICT|INTERRES
   131   66   68 2    
   132   67  132 1    
   133   67  133 1    
   134   69   70 1    
   135   69  134 1    
   136   69  135 1    
   137   70   71 1    
   138   71  136 1    
   139   71  137 1    
@<TRIPOS>SUBSTRUCTURE
     1 UNK         1 GROUP             0       ****    0 ROOT    
