@<TRIPOS>MOLECULE
3R136
137   139    1
SMALL
USER_CHARGES


@<TRIPOS>ATOM
      1 CA         31.3220   23.5585   -3.0011 C.3       0 UNK        -0.1979 
      2 C          30.7244   24.9286   -2.7188 C.2       0 UNK         0.4864 
      3 O          30.5569   25.7282   -3.6413 O.2       0 UNK        -0.5359 
      4 N          30.3786   25.2029   -1.4542 N.am      1 UNK        -0.4318 
      5 CA         29.8364   26.4788   -0.9632 C.3       1 UNK         0.0824 
      6 C6         30.1372   26.6728    0.5448 C.3       12 UNK        -0.0944 
      7 S7         31.9279   26.7985    0.8688 S.3       12 UNK        -0.2672 
      8 C8         32.3287   25.1638    1.5625 C.3       12 UNK         0.0333 
      9 C9         31.7750   24.9856    2.9682 C.ar      12 UNK        -0.0807 
     10 C10        32.3566   25.6695    4.0399 C.ar      12 UNK        -0.0894 
     11 C11        31.8703   25.4992    5.3390 C.ar      12 UNK        -0.0804 
     12 C12        30.7909   24.6397    5.5618 C.ar      12 UNK        -0.0824 
     13 C13        30.2001   23.9497    4.4980 C.ar      12 UNK        -0.0762 
     14 C14        30.7009   24.1216    3.2039 C.ar      12 UNK        -0.0782 
     15 C15        29.0276   23.0101    4.7523 C.3       12 UNK         0.0230 
     16 S16        27.4845   23.5791    3.9649 S.3       12 UNK        -0.2608 
     17 C17        27.2937   25.2553    4.6637 C.3       12 UNK        -0.0989 
     18 CA         27.5004   26.3443    3.5744 C.3       5 UNK         0.0716 
     19 N          26.5079   26.2807    2.4900 N.am      5 UNK        -0.4135 
     20 C          25.1875   26.5000    2.6113 C.2       4 UNK         0.5031 
     21 O          24.6230   26.7630    3.6737 O.2       4 UNK        -0.5229 
     22 CA         24.3455   26.4353    1.3303 C.3       4 UNK         0.0329 
     23 CB         24.1875   27.8449    0.7344 C.3       4 UNK        -0.2001 
     24 N          24.9519   25.5678    0.3237 N.am      4 UNK        -0.4303 
     25 C          24.5878   24.3070    0.0507 C.2       3 UNK         0.5044 
     26 O          23.6980   23.7093    0.6580 O.2       3 UNK        -0.5152 
     27 CA         25.3486   23.5865   -1.0886 C.3       3 UNK         0.0319 
     28 CB         24.4293   22.6735   -1.9274 C.3       3 UNK        -0.2001 
     29 N          26.1213   24.4980   -1.9472 N.am      3 UNK        -0.4354 
     30 C          25.6508   25.5065   -2.7000 C.2       2 UNK         0.4964 
     31 O          24.4549   25.6790   -2.9385 O.2       2 UNK        -0.5047 
     32 CA         26.6777   26.5321   -3.2273 C.3       2 UNK         0.0288 
     33 CB         26.1206   27.9692   -3.1618 C.3       2 UNK        -0.2113 
     34 N          28.0030   26.4778   -2.5873 N.am      2 UNK        -0.4145 
     35 C          28.3313   26.6119   -1.2914 C.2       1 UNK         0.5006 
     36 O          27.5056   26.7647   -0.3842 O.2       1 UNK        -0.5103 
     37 C          27.6056   27.7755    4.1460 C.2       5 UNK         0.5055 
     38 O          27.6550   27.9632    5.3631 O.2       5 UNK        -0.5220 
     39 N          27.6234   28.7617    3.2399 N.am      6 UNK        -0.4450 
     40 CA         27.6949   30.1881    3.5496 C.3       6 UNK         0.0367 
     41 CB         26.2924   30.7477    3.8500 C.3       6 UNK        -0.1929 
     42 C          28.3656   30.9448    2.3996 C.2       6 UNK         0.5070 
     43 O          29.2896   31.7200    2.6451 O.2       6 UNK        -0.5237 
     44 N          27.9082   30.6878    1.1646 N.am      7 UNK        -0.4739 
     45 CA         28.4196   31.2756   -0.0769 C.3       7 UNK         0.0276 
     46 CB         27.5578   30.7777   -1.2492 C.3       7 UNK        -0.1927 
     47 C          29.9064   30.9470   -0.3024 C.2       7 UNK         0.5013 
     48 O          30.2210   29.8338   -0.7224 O.2       7 UNK        -0.5193 
     49 N          30.7777   31.9148    0.0178 N.am      8 UNK        -0.4253 
     50 CA         32.2448   31.8322    0.0078 C.3       8 UNK         0.0242 
     51 CB         32.7803   31.6007   -1.4224 C.3       8 UNK        -0.2000 
     52 C          32.8224   30.8289    1.0306 C.2       8 UNK         0.4948 
     53 O          33.9445   30.3536    0.8433 O.2       8 UNK        -0.5275 
     54 N          32.0702   30.5388    2.1023 N.am      9 UNK        -0.4246 
     55 CA         32.5004   29.6751    3.2022 C.3       9 UNK         0.0261 
     56 CB         31.2631   29.2069    3.9822 C.3       9 UNK        -0.1959 
     57 C          33.4858   30.4132    4.1220 C.2       9 UNK         0.5033 
     58 O          33.2774   31.5948    4.4106 O.2       9 UNK        -0.5390 
     59 N          34.5261   29.7059    4.5788 N.am      10 UNK        -0.4215 
     60 CA         35.5948   30.2496    5.4189 C.3       10 UNK         0.0240 
     61 CB         36.6391   30.9746    4.5433 C.3       10 UNK        -0.1982 
     62 C          36.2025   29.1441    6.2961 C.2       10 UNK         0.4970 
     63 O          37.4206   28.9563    6.2970 O.2       10 UNK        -0.4916 
     64 N          35.3397   28.4179    7.0173 N.am      11 UNK        -0.4279 
     65 CA         35.7381   27.4167    8.0199 C.3       11 UNK         0.1003 
     66 C          36.3628   28.0745    9.2817 C.2       11 UNK         0.5709 
     67 N          37.3005   27.4003    9.9333 N.am      11 UNK        -0.7358 
     68 O          35.9794   29.1681    9.6948 O.2       11 UNK        -0.4999 
     69 C69        34.5543   26.4953    8.4125 C.3       12 UNK        -0.0954 
     70 S70        34.0338   25.4102    7.0438 S.3       12 UNK        -0.2268 
     71 C71        32.5134   26.2403    6.5005 C.3       12 UNK         0.0203 
     72 H72        30.6983   23.0158   -3.7109 H         1 UNK         0.0888 
     73 H73        32.3162   23.6664   -3.4338 H         1 UNK         0.0888 
     74 H74        31.4099   22.9569   -2.0966 H         1 UNK         0.0888 
     75 H75        30.5127   24.4939   -0.7493 H         1 UNK         0.3017 
     76 H76        30.3335   27.2892   -1.5011 H         1 UNK         0.0873 
     77 H77        29.6864   27.5981    0.9086 H         1 UNK         0.0745 
     78 H78        29.7026   25.8650    1.1333 H         1 UNK         0.0745 
     79 H79        31.9665   24.3813    0.8953 H         1 UNK         0.0705 
     80 H80        33.4139   25.0562    1.5923 H         1 UNK         0.0705 
     81 H81        33.1939   26.3295    3.8616 H         1 UNK         0.1334 
     82 H82        30.4137   24.5053    6.5665 H         1 UNK         0.1417 
     83 H83        30.2472   23.5833    2.3829 H         1 UNK         0.1562 
     84 H84        28.8519   22.8880    5.8223 H         1 UNK         0.0748 
     85 H85        29.2744   22.0189    4.3694 H         1 UNK         0.0748 
     86 H86        28.0023   25.3843    5.4830 H         1 UNK         0.0940 
     87 H87        26.3055   25.3369    5.1181 H         1 UNK         0.0940 
     88 H88        28.4706   26.1570    3.1139 H         1 UNK         0.0703 
     89 H89        26.8749   26.1071    1.5627 H         1 UNK         0.3081 
     90 H90        23.3546   26.0626    1.5982 H         1 UNK         0.0719 
     91 H91        23.7280   28.5248    1.4533 H         1 UNK         0.0809 
     92 H92        25.1478   28.2735    0.4449 H         1 UNK         0.0809 
     93 H93        23.5503   27.8294   -0.1501 H         1 UNK         0.0809 
     94 H94        25.7212   25.9684   -0.2037 H         1 UNK         0.2990 
     95 H95        26.0824   22.9475   -0.5952 H         1 UNK         0.0690 
     96 H96        24.9829   22.1766   -2.7239 H         1 UNK         0.0788 
     97 H97        23.6099   23.2295   -2.3836 H         1 UNK         0.0788 
     98 H98        23.9841   21.8931   -1.3091 H         1 UNK         0.0788 
     99 H99        27.1235   24.4457   -1.8344 H         1 UNK         0.2993 
    100 H100       26.8374   26.2830   -4.2775 H         1 UNK         0.0949 
    101 H101       25.8512   28.2489   -2.1429 H         1 UNK         0.0767 
    102 H102       26.8451   28.6940   -3.5331 H         1 UNK         0.0767 
    103 H103       25.2233   28.0727   -3.7732 H         1 UNK         0.0767 
    104 H104       28.7833   26.3044   -3.2184 H         1 UNK         0.3013 
    105 H105       27.6330   28.5129    2.2614 H         1 UNK         0.3121 
    106 H106       28.3171   30.3293    4.4359 H         1 UNK         0.0774 
    107 H107       26.3341   31.8194    4.0489 H         1 UNK         0.0815 
    108 H108       25.6055   30.5942    3.0171 H         1 UNK         0.0815 
    109 H109       25.8583   30.2726    4.7299 H         1 UNK         0.0815 
    110 H110       27.1218   30.0658    1.0590 H         1 UNK         0.2987 
    111 H111       28.3047   32.3597   -0.0108 H         1 UNK         0.0949 
    112 H112       26.5143   31.0711   -1.1338 H         1 UNK         0.0806 
    113 H113       27.9085   31.1907   -2.1959 H         1 UNK         0.0806 
    114 H114       27.5954   29.6917   -1.3346 H         1 UNK         0.0806 
    115 H115       30.4006   32.7701    0.4038 H         1 UNK         0.3010 
    116 H116       32.5985   32.8124    0.3309 H         1 UNK         0.0829 
    117 H117       32.5436   30.6004   -1.7861 H         1 UNK         0.0813 
    118 H118       32.3635   32.3220   -2.1253 H         1 UNK         0.0813 
    119 H119       33.8651   31.7077   -1.4562 H         1 UNK         0.0813 
    120 H120       31.1788   31.0100    2.2160 H         1 UNK         0.3038 
    121 H121       32.9963   28.7984    2.7815 H         1 UNK         0.0769 
    122 H122       30.5765   28.6597    3.3365 H         1 UNK         0.0811 
    123 H123       30.7251   30.0471    4.4215 H         1 UNK         0.0811 
    124 H124       31.5356   28.5397    4.7968 H         1 UNK         0.0811 
    125 H125       34.6276   28.7369    4.3084 H         1 UNK         0.3204 
    126 H126       35.1687   30.9800    6.1104 H         1 UNK         0.0748 
    127 H127       37.1000   30.2965    3.8241 H         1 UNK         0.0771 
    128 H128       36.1897   31.7968    3.9861 H         1 UNK         0.0771 
    129 H129       37.4372   31.3997    5.1534 H         1 UNK         0.0771 
    130 H130       34.3619   28.6622    6.9962 H         1 UNK         0.2980 
    131 H131       36.5110   26.7918    7.5668 H         1 UNK         0.0545 
    132 H132       37.7075   27.8043   10.7624 H         1 UNK         0.3459 
    133 H133       37.6135   26.4977    9.6107 H         1 UNK         0.3459 
    134 H134       33.7071   27.0807    8.7745 H         1 UNK         0.0616 
    135 H135       34.8394   25.8390    9.2371 H         1 UNK         0.0616 
    136 H136       32.7542   27.2608    6.2062 H         1 UNK         0.0634 
    137 H137       31.8184   26.3124    7.3388 H         1 UNK         0.0634 
@<TRIPOS>BOND
     1    1    2 1    
     2    1   72 1    
     3    1   73 1    
     4    1   74 1    
     5    2    3 2    
     6    2    4 am   BACKBONE|DICT|INTERRES
     7    4    5 1    
     8    4   75 1    
     9    5    6 1    
    10    5   35 1    
    11    5   76 1    
    12    6    7 1    
    13    6   77 1    
    14    6   78 1    
    15    7    8 1    
    16    8    9 1    
    17    8   79 1    
    18    8   80 1    
    19    9   10 ar   
    20    9   14 ar   
    21   10   11 ar   
    22   10   81 1    
    23   11   12 ar   
    24   11   71 1    
    25   12   13 ar   
    26   12   82 1    
    27   13   14 ar   
    28   13   15 1    
    29   14   83 1    
    30   15   16 1    
    31   15   84 1    
    32   15   85 1    
    33   16   17 1    
    34   17   18 1    
    35   17   86 1    
    36   17   87 1    
    37   18   19 1    
    38   18   37 1    
    39   18   88 1    
    40   19   20 am   BACKBONE|DICT|INTERRES
    41   19   89 1    
    42   20   21 2    
    43   20   22 1    
    44   22   23 1    
    45   22   24 1    
    46   22   90 1    
    47   23   91 1    
    48   23   92 1    
    49   23   93 1    
    50   24   25 am   BACKBONE|DICT|INTERRES
    51   24   94 1    
    52   25   26 2    
    53   25   27 1    
    54   27   28 1    
    55   27   29 1    
    56   27   95 1    
    57   28   96 1    
    58   28   97 1    
    59   28   98 1    
    60   29   30 am   BACKBONE|DICT|INTERRES
    61   29   99 1    
    62   30   31 2    
    63   30   32 1    
    64   32   33 1    
    65   32   34 1    
    66   32  100 1    
    67   33  101 1    
    68   33  102 1    
    69   33  103 1    
    70   34   35 am   BACKBONE|DICT|INTERRES
    71   34  104 1    
    72   35   36 2    
    73   37   38 2    
    74   37   39 am   BACKBONE|DICT|INTERRES
    75   39   40 1    
    76   39  105 1    
    77   40   41 1    
    78   40   42 1    
    79   40  106 1    
    80   41  107 1    
    81   41  108 1    
    82   41  109 1    
    83   42   43 2    
    84   42   44 am   BACKBONE|DICT|INTERRES
    85   44   45 1    
    86   44  110 1    
    87   45   46 1    
    88   45   47 1    
    89   45  111 1    
    90   46  112 1    
    91   46  113 1    
    92   46  114 1    
    93   47   48 2    
    94   47   49 am   BACKBONE|DICT|INTERRES
    95   49   50 1    
    96   49  115 1    
    97   50   51 1    
    98   50   52 1    
    99   50  116 1    
   100   51  117 1    
   101   51  118 1    
   102   51  119 1    
   103   52   53 2    
   104   52   54 am   BACKBONE|DICT|INTERRES
   105   54   55 1    
   106   54  120 1    
   107   55   56 1    
   108   55   57 1    
   109   55  121 1    
   110   56  122 1    
   111   56  123 1    
   112   56  124 1    
   113   57   58 2    
   114   57   59 am   BACKBONE|DICT|INTERRES
   115   59   60 1    
   116   59  125 1    
   117   60   61 1    
   118   60   62 1    
   119   60  126 1    
   120   61  127 1    
   121   61  128 1    
   122   61  129 1    
   123   62   63 2    
   124   62   64 am   BACKBONE|DICT|INTERRES
   125   64   65 1    
   126   64  130 1    
   127   65   66 1    
   128   65   69 1    
   129   65  131 1    
   130   66   67 am   BACKBONE|DICT|INTERRES
   131   66   68 2    
   132   67  132 1    
   133   67  133 1    
   134   69   70 1    
   135   69  134 1    
   136   69  135 1    
   137   70   71 1    
   138   71  136 1    
   139   71  137 1    
@<TRIPOS>SUBSTRUCTURE
     1 UNK         1 GROUP             0       ****    0 ROOT    
