@<TRIPOS>MOLECULE
3R136
137   139    1
SMALL
USER_CHARGES


@<TRIPOS>ATOM
      1 CA         30.5102   22.5622   -5.2200 C.3       0 UNK        -0.1979 
      2 C          29.8037   23.0706   -3.9725 C.2       0 UNK         0.4864 
      3 O          28.9316   22.3819   -3.4418 O.2       0 UNK        -0.5359 
      4 N          30.1518   24.2834   -3.5188 N.am      1 UNK        -0.4318 
      5 CA         29.6943   24.9740   -2.2969 C.3       1 UNK         0.0824 
      6 C6         30.0113   24.2105   -0.9814 C.3       12 UNK        -0.0944 
      7 S7         31.7552   23.6802   -0.8418 S.3       12 UNK        -0.2672 
      8 C8         32.4362   24.8683    0.3674 C.3       12 UNK         0.0333 
      9 C9         32.0564   24.6446    1.8349 C.ar      12 UNK        -0.0807 
     10 C10        32.7463   25.3732    2.8091 C.ar      12 UNK        -0.0894 
     11 C11        32.4613   25.2138    4.1681 C.ar      12 UNK        -0.0804 
     12 C12        31.4614   24.3191    4.5585 C.ar      12 UNK        -0.0824 
     13 C13        30.7529   23.5882    3.5992 C.ar      12 UNK        -0.0762 
     14 C14        31.0590   23.7491    2.2452 C.ar      12 UNK        -0.0782 
     15 C15        29.6529   22.6216    4.0158 C.3       12 UNK         0.0230 
     16 S16        27.9960   23.3372    3.7623 S.3       12 UNK        -0.2608 
     17 C17        27.9962   24.6713    5.0071 C.3       12 UNK        -0.0989 
     18 CA         28.3011   26.0567    4.3801 C.3       5 UNK         0.0716 
     19 N          27.2611   26.4493    3.4188 N.am      5 UNK        -0.4135 
     20 C          27.3337   27.3914    2.4687 C.2       4 UNK         0.5031 
     21 O          28.2955   28.1515    2.3249 O.2       4 UNK        -0.5229 
     22 CA         26.1280   27.4830    1.5186 C.3       4 UNK         0.0329 
     23 CB         26.2580   28.6254    0.4946 C.3       4 UNK        -0.2001 
     24 N          25.9389   26.2180    0.8063 N.am      4 UNK        -0.4303 
     25 C          25.2759   25.1562    1.2898 C.2       3 UNK         0.5044 
     26 O          24.7619   25.1501    2.4102 O.2       3 UNK        -0.5152 
     27 CA         25.2035   23.8776    0.4258 C.3       3 UNK         0.0319 
     28 CB         23.8093   23.2182    0.4798 C.3       3 UNK        -0.2001 
     29 N          25.6525   24.0497   -0.9623 N.am      3 UNK        -0.4354 
     30 C          25.1162   24.8302   -1.9148 C.2       2 UNK         0.4964 
     31 O          24.0733   25.4699   -1.7722 O.2       2 UNK        -0.5047 
     32 CA         25.9058   24.9351   -3.2377 C.3       2 UNK         0.0288 
     33 CB         25.6385   26.2615   -3.9810 C.3       2 UNK        -0.2113 
     34 N          27.3531   24.7207   -3.0788 N.am      2 UNK        -0.4145 
     35 C          28.2100   25.4114   -2.3103 C.2       1 UNK         0.5006 
     36 O          27.8645   26.3534   -1.5966 O.2       1 UNK        -0.5103 
     37 C          28.5933   27.1355    5.4494 C.2       5 UNK         0.5055 
     38 O          28.5750   26.8542    6.6493 O.2       5 UNK        -0.5220 
     39 N          28.8702   28.3496    4.9775 N.am      6 UNK        -0.4450 
     40 CA         29.3278   29.5166    5.7104 C.3       6 UNK         0.0367 
     41 CB         28.2212   30.1048    6.6081 C.3       6 UNK        -0.1929 
     42 C          29.8277   30.5198    4.6708 C.2       6 UNK         0.5070 
     43 O          31.0244   30.7968    4.6112 O.2       6 UNK        -0.5237 
     44 N          28.9047   31.0095    3.8328 N.am      7 UNK        -0.4739 
     45 CA         29.1572   32.0272    2.8105 C.3       7 UNK         0.0276 
     46 CB         27.8149   32.5147    2.2424 C.3       7 UNK        -0.1927 
     47 C          30.0888   31.5774    1.6720 C.2       7 UNK         0.5013 
     48 O          30.7743   32.4273    1.1032 O.2       7 UNK        -0.5193 
     49 N          30.1090   30.2727    1.3574 N.am      8 UNK        -0.4253 
     50 CA         30.8925   29.6985    0.2578 C.3       8 UNK         0.0242 
     51 CB         30.5053   28.2248    0.0632 C.3       8 UNK        -0.2000 
     52 C          32.4193   29.8303    0.4084 C.2       8 UNK         0.4948 
     53 O          33.1086   29.8741   -0.6118 O.2       8 UNK        -0.5275 
     54 N          32.9224   29.8829    1.6499 N.am      9 UNK        -0.4246 
     55 CA         34.3566   29.9780    1.9495 C.3       9 UNK         0.0261 
     56 CB         34.9037   28.5702    2.2503 C.3       9 UNK        -0.1959 
     57 C          34.6792   30.9624    3.0868 C.2       9 UNK         0.5033 
     58 O          35.8225   30.9756    3.5459 O.2       9 UNK        -0.5390 
     59 N          33.6883   31.7499    3.5370 N.am      10 UNK        -0.4215 
     60 CA         33.7297   32.6291    4.7171 C.3       10 UNK         0.0240 
     61 CB         34.6776   33.8259    4.4872 C.3       10 UNK        -0.1982 
     62 C          34.0350   31.8490    6.0149 C.2       10 UNK         0.4970 
     63 O          34.8070   32.3139    6.8557 O.2       10 UNK        -0.4916 
     64 N          33.4261   30.6640    6.1301 N.am      11 UNK        -0.4279 
     65 CA         33.5905   29.7002    7.2257 C.3       11 UNK         0.1003 
     66 C          32.4700   29.7706    8.3032 C.2       11 UNK         0.5709 
     67 N          31.5388   30.7152    8.2315 N.am      11 UNK        -0.7358 
     68 O          32.4614   28.9757    9.2401 O.2       11 UNK        -0.4999 
     69 C69        33.8411   28.2648    6.6830 C.3       12 UNK        -0.0954 
     70 S70        32.5713   27.6299    5.5328 S.3       12 UNK        -0.2268 
     71 C71        33.2628   25.9793    5.2112 C.3       12 UNK         0.0203 
     72 H72        29.7859   22.3758   -6.0125 H         1 UNK         0.0888 
     73 H73        31.2453   23.2753   -5.5924 H         1 UNK         0.0888 
     74 H74        31.0258   21.6274   -5.0021 H         1 UNK         0.0888 
     75 H75        30.8509   24.7954   -4.0389 H         1 UNK         0.3017 
     76 H76        30.2655   25.9031   -2.2724 H         1 UNK         0.0873 
     77 H77        29.7589   24.8318   -0.1193 H         1 UNK         0.0745 
     78 H78        29.3893   23.3174   -0.8990 H         1 UNK         0.0745 
     79 H79        33.5232   24.8233    0.2841 H         1 UNK         0.0705 
     80 H80        32.1540   25.8769    0.0711 H         1 UNK         0.0705 
     81 H81        33.5231   26.0604    2.5078 H         1 UNK         0.1334 
     82 H82        31.2362   24.1930    5.6087 H         1 UNK         0.1417 
     83 H83        30.5052   23.1688    1.5225 H         1 UNK         0.1562 
     84 H84        29.7697   22.3245    5.0592 H         1 UNK         0.0748 
     85 H85        29.7336   21.7048    3.4299 H         1 UNK         0.0748 
     86 H86        28.7215   24.4207    5.7833 H         1 UNK         0.0940 
     87 H87        27.0245   24.6843    5.5042 H         1 UNK         0.0940 
     88 H88        29.2281   25.9642    3.8110 H         1 UNK         0.0703 
     89 H89        26.4206   25.8820    3.4303 H         1 UNK         0.3081 
     90 H90        25.2469   27.6904    2.1294 H         1 UNK         0.0719 
     91 H91        26.3627   29.5878    0.9953 H         1 UNK         0.0809 
     92 H92        27.1264   28.4974   -0.1509 H         1 UNK         0.0809 
     93 H93        25.3763   28.6861   -0.1435 H         1 UNK         0.0809 
     94 H94        26.3962   26.1447   -0.0962 H         1 UNK         0.2990 
     95 H95        25.9104   23.1812    0.8795 H         1 UNK         0.0690 
     96 H96        23.5444   22.9454    1.5021 H         1 UNK         0.0788 
     97 H97        23.7784   22.3051   -0.1145 H         1 UNK         0.0788 
     98 H98        23.0295   23.8856    0.1119 H         1 UNK         0.0788 
     99 H99        26.5072   23.5654   -1.1986 H         1 UNK         0.2993 
    100 H100       25.5426   24.1219   -3.8680 H         1 UNK         0.0949 
    101 H101       26.1956   26.3108   -4.9166 H         1 UNK         0.0767 
    102 H102       24.5818   26.3670   -4.2299 H         1 UNK         0.0767 
    103 H103       25.9185   27.1259   -3.3777 H         1 UNK         0.0767 
    104 H104       27.7345   23.8972   -3.5368 H         1 UNK         0.3013 
    105 H105       28.8385   28.4522    3.9626 H         1 UNK         0.3121 
    106 H106       30.1712   29.2214    6.3349 H         1 UNK         0.0774 
    107 H107       28.5460   31.0415    7.0627 H         1 UNK         0.0815 
    108 H108       27.3047   30.3078    6.0538 H         1 UNK         0.0815 
    109 H109       27.9710   29.4249    7.4223 H         1 UNK         0.0815 
    110 H110       27.9487   30.7015    3.9358 H         1 UNK         0.2987 
    111 H111       29.6433   32.8722    3.3037 H         1 UNK         0.0949 
    112 H112       27.2655   31.7083    1.7563 H         1 UNK         0.0806 
    113 H113       27.1800   32.9322    3.0240 H         1 UNK         0.0806 
    114 H114       27.9671   33.2988    1.4991 H         1 UNK         0.0806 
    115 H115       29.4853   29.6371    1.8470 H         1 UNK         0.3010 
    116 H116       30.6160   30.2388   -0.6501 H         1 UNK         0.0829 
    117 H117       30.7082   27.6321    0.9563 H         1 UNK         0.0813 
    118 H118       29.4476   28.1198   -0.1730 H         1 UNK         0.0813 
    119 H119       31.0601   27.7841   -0.7653 H         1 UNK         0.0813 
    120 H120       32.2885   29.8080    2.4346 H         1 UNK         0.3038 
    121 H121       34.8888   30.3668    1.0789 H         1 UNK         0.0769 
    122 H122       34.7095   27.8850    1.4252 H         1 UNK         0.0811 
    123 H123       34.4559   28.1551    3.1531 H         1 UNK         0.0811 
    124 H124       35.9836   28.5893    2.4022 H         1 UNK         0.0811 
    125 H125       32.7835   31.6756    3.0933 H         1 UNK         0.3204 
    126 H126       32.7213   33.0284    4.8354 H         1 UNK         0.0748 
    127 H127       34.6096   34.5406    5.3083 H         1 UNK         0.0771 
    128 H128       35.7195   33.5123    4.4162 H         1 UNK         0.0771 
    129 H129       34.4252   34.3607    3.5716 H         1 UNK         0.0771 
    130 H130       32.7262   30.4207    5.4354 H         1 UNK         0.2980 
    131 H131       34.4944   29.9698    7.7743 H         1 UNK         0.0545 
    132 H132       30.8313   30.7640    8.9468 H         1 UNK         0.3459 
    133 H133       31.5526   31.3864    7.4812 H         1 UNK         0.3459 
    134 H134       33.9562   27.5569    7.5057 H         1 UNK         0.0616 
    135 H135       34.7945   28.2534    6.1525 H         1 UNK         0.0616 
    136 H136       34.2964   26.0815    4.8767 H         1 UNK         0.0634 
    137 H137       33.2970   25.4179    6.1461 H         1 UNK         0.0634 
@<TRIPOS>BOND
     1    1    2 1    
     2    1   72 1    
     3    1   73 1    
     4    1   74 1    
     5    2    3 2    
     6    2    4 am   BACKBONE|DICT|INTERRES
     7    4    5 1    
     8    4   75 1    
     9    5    6 1    
    10    5   35 1    
    11    5   76 1    
    12    6    7 1    
    13    6   77 1    
    14    6   78 1    
    15    7    8 1    
    16    8    9 1    
    17    8   79 1    
    18    8   80 1    
    19    9   10 ar   
    20    9   14 ar   
    21   10   11 ar   
    22   10   81 1    
    23   11   12 ar   
    24   11   71 1    
    25   12   13 ar   
    26   12   82 1    
    27   13   14 ar   
    28   13   15 1    
    29   14   83 1    
    30   15   16 1    
    31   15   84 1    
    32   15   85 1    
    33   16   17 1    
    34   17   18 1    
    35   17   86 1    
    36   17   87 1    
    37   18   19 1    
    38   18   37 1    
    39   18   88 1    
    40   19   20 am   BACKBONE|DICT|INTERRES
    41   19   89 1    
    42   20   21 2    
    43   20   22 1    
    44   22   23 1    
    45   22   24 1    
    46   22   90 1    
    47   23   91 1    
    48   23   92 1    
    49   23   93 1    
    50   24   25 am   BACKBONE|DICT|INTERRES
    51   24   94 1    
    52   25   26 2    
    53   25   27 1    
    54   27   28 1    
    55   27   29 1    
    56   27   95 1    
    57   28   96 1    
    58   28   97 1    
    59   28   98 1    
    60   29   30 am   BACKBONE|DICT|INTERRES
    61   29   99 1    
    62   30   31 2    
    63   30   32 1    
    64   32   33 1    
    65   32   34 1    
    66   32  100 1    
    67   33  101 1    
    68   33  102 1    
    69   33  103 1    
    70   34   35 am   BACKBONE|DICT|INTERRES
    71   34  104 1    
    72   35   36 2    
    73   37   38 2    
    74   37   39 am   BACKBONE|DICT|INTERRES
    75   39   40 1    
    76   39  105 1    
    77   40   41 1    
    78   40   42 1    
    79   40  106 1    
    80   41  107 1    
    81   41  108 1    
    82   41  109 1    
    83   42   43 2    
    84   42   44 am   BACKBONE|DICT|INTERRES
    85   44   45 1    
    86   44  110 1    
    87   45   46 1    
    88   45   47 1    
    89   45  111 1    
    90   46  112 1    
    91   46  113 1    
    92   46  114 1    
    93   47   48 2    
    94   47   49 am   BACKBONE|DICT|INTERRES
    95   49   50 1    
    96   49  115 1    
    97   50   51 1    
    98   50   52 1    
    99   50  116 1    
   100   51  117 1    
   101   51  118 1    
   102   51  119 1    
   103   52   53 2    
   104   52   54 am   BACKBONE|DICT|INTERRES
   105   54   55 1    
   106   54  120 1    
   107   55   56 1    
   108   55   57 1    
   109   55  121 1    
   110   56  122 1    
   111   56  123 1    
   112   56  124 1    
   113   57   58 2    
   114   57   59 am   BACKBONE|DICT|INTERRES
   115   59   60 1    
   116   59  125 1    
   117   60   61 1    
   118   60   62 1    
   119   60  126 1    
   120   61  127 1    
   121   61  128 1    
   122   61  129 1    
   123   62   63 2    
   124   62   64 am   BACKBONE|DICT|INTERRES
   125   64   65 1    
   126   64  130 1    
   127   65   66 1    
   128   65   69 1    
   129   65  131 1    
   130   66   67 am   BACKBONE|DICT|INTERRES
   131   66   68 2    
   132   67  132 1    
   133   67  133 1    
   134   69   70 1    
   135   69  134 1    
   136   69  135 1    
   137   70   71 1    
   138   71  136 1    
   139   71  137 1    
@<TRIPOS>SUBSTRUCTURE
     1 UNK         1 GROUP             0       ****    0 ROOT    
