@<TRIPOS>MOLECULE
3R136
137   139    1
SMALL
USER_CHARGES


@<TRIPOS>ATOM
      1 CA         28.1968   19.8406    5.3047 C.3       0 UNK        -0.1979 
      2 C          28.2363   20.5897    3.9809 C.2       0 UNK         0.4864 
      3 O          27.2421   21.2091    3.6013 O.2       0 UNK        -0.5359 
      4 N          29.3735   20.5302    3.2759 N.am      1 UNK        -0.4318 
      5 CA         29.6305   21.2364    2.0177 C.3       1 UNK         0.0824 
      6 C6         30.8533   20.6135    1.2921 C.3       12 UNK        -0.0944 
      7 S7         30.8294   20.8854   -0.5104 S.3       12 UNK        -0.2672 
      8 C8         32.4781   21.5907   -0.8210 C.3       12 UNK         0.0333 
      9 C9         32.5556   23.0654   -0.4531 C.ar      12 UNK        -0.0807 
     10 C10        33.1149   23.4635    0.7646 C.ar      12 UNK        -0.0894 
     11 C11        33.2237   24.8172    1.0996 C.ar      12 UNK        -0.0804 
     12 C12        32.7697   25.7767    0.1845 C.ar      12 UNK        -0.0824 
     13 C13        32.2034   25.3936   -1.0347 C.ar      12 UNK        -0.0762 
     14 C14        32.0964   24.0360   -1.3477 C.ar      12 UNK        -0.0782 
     15 C15        31.7201   26.4497   -2.0189 C.3       12 UNK         0.0230 
     16 S16        29.9326   26.7521   -1.8634 S.3       12 UNK        -0.2608 
     17 C17        29.8270   27.4466   -0.1785 C.3       12 UNK        -0.0989 
     18 CA         28.6784   28.4733   -0.0197 C.3       5 UNK         0.0716 
     19 N          27.3830   27.8874   -0.3682 N.am      5 UNK        -0.4135 
     20 C          26.4381   28.4711   -1.1157 C.2       4 UNK         0.5031 
     21 O          26.5332   29.6096   -1.5754 O.2       4 UNK        -0.5229 
     22 CA         25.1664   27.6498   -1.4070 C.3       4 UNK         0.0329 
     23 CB         25.2360   27.0455   -2.8190 C.3       4 UNK        -0.2001 
     24 N          24.9281   26.5742   -0.4397 N.am      4 UNK        -0.4303 
     25 C          24.5808   26.7651    0.8406 C.2       3 UNK         0.5044 
     26 O          24.3691   27.8729    1.3325 O.2       3 UNK        -0.5152 
     27 CA         24.5194   25.5142    1.7354 C.3       3 UNK         0.0319 
     28 CB         23.1181   24.8852    1.6869 C.3       3 UNK        -0.2001 
     29 N          25.5269   24.4958    1.4076 N.am      3 UNK        -0.4354 
     30 C          26.8526   24.6914    1.4454 C.2       2 UNK         0.4964 
     31 O          27.3798   25.7762    1.7015 O.2       2 UNK        -0.5047 
     32 CA         27.7411   23.4964    1.0909 C.3       2 UNK         0.0288 
     33 CB         27.9845   23.4401   -0.4266 C.3       2 UNK        -0.2113 
     34 N          29.0066   23.6678    1.8016 N.am      2 UNK        -0.4145 
     35 C          29.8319   22.7438    2.3123 C.2       1 UNK         0.5006 
     36 O          30.7635   23.0670    3.0505 O.2       1 UNK        -0.5103 
     37 C          28.6739   29.0507    1.4110 C.2       5 UNK         0.5055 
     38 O          29.7066   29.5610    1.8426 O.2       5 UNK        -0.5220 
     39 N          27.5414   28.9758    2.1292 N.am      6 UNK        -0.4450 
     40 CA         27.4050   29.3578    3.5403 C.3       6 UNK         0.0367 
     41 CB         25.9880   29.0125    4.0232 C.3       6 UNK        -0.1929 
     42 C          27.7375   30.8285    3.8559 C.2       6 UNK         0.5070 
     43 O          28.0932   31.1307    4.9952 O.2       6 UNK        -0.5237 
     44 N          27.6225   31.7074    2.8522 N.am      7 UNK        -0.4739 
     45 CA         27.9588   33.1290    2.9401 C.3       7 UNK         0.0276 
     46 CB         27.1189   33.8940    1.9028 C.3       7 UNK        -0.1927 
     47 C          29.4587   33.4287    2.7435 C.2       7 UNK         0.5013 
     48 O          29.8651   34.5658    2.9909 O.2       7 UNK        -0.5193 
     49 N          30.2513   32.4509    2.2781 N.am      8 UNK        -0.4253 
     50 CA         31.6901   32.6055    2.0433 C.3       8 UNK         0.0242 
     51 CB         32.1604   31.5326    1.0461 C.3       8 UNK        -0.2000 
     52 C          32.4931   32.5176    3.3516 C.2       8 UNK         0.4948 
     53 O          31.9939   32.0038    4.3563 O.2       8 UNK        -0.5275 
     54 N          33.7438   32.9972    3.3072 N.am      9 UNK        -0.4246 
     55 CA         34.7018   32.9310    4.4144 C.3       9 UNK         0.0261 
     56 CB         36.0006   33.6486    4.0122 C.3       9 UNK        -0.1959 
     57 C          34.9894   31.4767    4.8247 C.2       9 UNK         0.5033 
     58 O          35.2585   30.6456    3.9539 O.2       9 UNK        -0.5390 
     59 N          34.8937   31.2005    6.1322 N.am      10 UNK        -0.4215 
     60 CA         35.0123   29.9000    6.8099 C.3       10 UNK         0.0240 
     61 CB         36.3978   29.2609    6.5870 C.3       10 UNK        -0.1982 
     62 C          33.8812   28.9026    6.4896 C.2       10 UNK         0.4970 
     63 O          33.3673   28.2726    7.4150 O.2       10 UNK        -0.4916 
     64 N          33.5187   28.7666    5.2098 N.am      11 UNK        -0.4279 
     65 CA         32.4635   27.8663    4.7210 C.3       11 UNK         0.1003 
     66 C          31.0219   28.3066    5.1002 C.2       11 UNK         0.5709 
     67 N          30.7485   29.5913    5.2923 N.am      11 UNK        -0.7358 
     68 O          30.1430   27.4604    5.2418 O.2       11 UNK        -0.4999 
     69 C69        32.5818   27.6075    3.1970 C.3       12 UNK        -0.0954 
     70 S70        34.2171   26.9425    2.7286 S.3       12 UNK        -0.2268 
     71 C71        33.8353   25.1764    2.4573 C.3       12 UNK         0.0203 
     72 H72        27.4006   19.0967    5.2909 H         1 UNK         0.0888 
     73 H73        29.1359   19.3279    5.5123 H         1 UNK         0.0888 
     74 H74        28.0013   20.5343    6.1220 H         1 UNK         0.0888 
     75 H75        30.1628   20.0317    3.6612 H         1 UNK         0.3017 
     76 H76        28.7616   21.0764    1.3806 H         1 UNK         0.0873 
     77 H77        30.8502   19.5304    1.4265 H         1 UNK         0.0745 
     78 H78        31.7954   20.9542    1.7246 H         1 UNK         0.0745 
     79 H79        33.2328   21.0151   -0.2826 H         1 UNK         0.0705 
     80 H80        32.7114   21.4721   -1.8802 H         1 UNK         0.0705 
     81 H81        33.4670   22.7145    1.4607 H         1 UNK         0.1334 
     82 H82        32.8488   26.8294    0.4103 H         1 UNK         0.1417 
     83 H83        31.6591   23.7347   -2.2900 H         1 UNK         0.1562 
     84 H84        31.9348   26.1269   -3.0387 H         1 UNK         0.0748 
     85 H85        32.2624   27.3861   -1.8780 H         1 UNK         0.0748 
     86 H86        30.7788   27.9249    0.0584 H         1 UNK         0.0940 
     87 H87        29.7166   26.6204    0.5265 H         1 UNK         0.0940 
     88 H88        28.8911   29.3111   -0.6871 H         1 UNK         0.0703 
     89 H89        27.2121   26.9670    0.0185 H         1 UNK         0.3081 
     90 H90        24.3175   28.3358   -1.3681 H         1 UNK         0.0719 
     91 H91        25.3790   27.8242   -3.5698 H         1 UNK         0.0809 
     92 H92        26.0651   26.3433   -2.9175 H         1 UNK         0.0809 
     93 H93        24.3156   26.5193   -3.0728 H         1 UNK         0.0809 
     94 H94        25.0771   25.6283   -0.7599 H         1 UNK         0.2990 
     95 H95        24.7093   25.8408    2.7600 H         1 UNK         0.0690 
     96 H96        23.0280   24.0608    2.3946 H         1 UNK         0.0788 
     97 H97        22.8788   24.5039    0.6934 H         1 UNK         0.0788 
     98 H98        22.3526   25.6176    1.9480 H         1 UNK         0.0788 
     99 H99        25.1770   23.5768    1.1756 H         1 UNK         0.2993 
    100 H100       27.2230   22.5975    1.4241 H         1 UNK         0.0949 
    101 H101       27.0443   23.4314   -0.9794 H         1 UNK         0.0767 
    102 H102       28.5606   24.2986   -0.7731 H         1 UNK         0.0767 
    103 H103       28.5264   22.5414   -0.7119 H         1 UNK         0.0767 
    104 H104       29.1692   24.6338    2.0549 H         1 UNK         0.3013 
    105 H105       26.7332   28.5432    1.7036 H         1 UNK         0.3121 
    106 H106       28.1086   28.7441    4.1035 H         1 UNK         0.0774 
    107 H107       25.2277   29.5625    3.4673 H         1 UNK         0.0815 
    108 H108       25.7811   27.9479    3.9131 H         1 UNK         0.0815 
    109 H109       25.8631   29.2576    5.0789 H         1 UNK         0.0815 
    110 H110       27.3252   31.3625    1.9510 H         1 UNK         0.2987 
    111 H111       27.6874   33.4946    3.9331 H         1 UNK         0.0949 
    112 H112       26.0516   33.7461    2.0688 H         1 UNK         0.0806 
    113 H113       27.3068   34.9671    1.9609 H         1 UNK         0.0806 
    114 H114       27.3486   33.5781    0.8844 H         1 UNK         0.0806 
    115 H115       29.8777   31.5120    2.1751 H         1 UNK         0.3010 
    116 H116       31.8644   33.5877    1.5982 H         1 UNK         0.0829 
    117 H117       32.0989   30.5323    1.4730 H         1 UNK         0.0813 
    118 H118       33.1988   31.6935    0.7545 H         1 UNK         0.0813 
    119 H119       31.5625   31.5446    0.1346 H         1 UNK         0.0813 
    120 H120       34.0906   33.3692    2.4351 H         1 UNK         0.3038 
    121 H121       34.2619   33.4619    5.2613 H         1 UNK         0.0769 
    122 H122       35.8178   34.6942    3.7633 H         1 UNK         0.0811 
    123 H123       36.4730   33.1745    3.1507 H         1 UNK         0.0811 
    124 H124       36.7237   33.6327    4.8289 H         1 UNK         0.0811 
    125 H125       34.6329   31.9635    6.7424 H         1 UNK         0.3204 
    126 H126       34.9305   30.1236    7.8750 H         1 UNK         0.0748 
    127 H127       36.5553   28.9743    5.5467 H         1 UNK         0.0771 
    128 H128       37.1995   29.9421    6.8724 H         1 UNK         0.0771 
    129 H129       36.5092   28.3583    7.1891 H         1 UNK         0.0771 
    130 H130       34.0145   29.3167    4.5140 H         1 UNK         0.2980 
    131 H131       32.6198   26.9055    5.2159 H         1 UNK         0.0545 
    132 H132       29.8057   29.8731    5.5181 H         1 UNK         0.3459 
    133 H133       31.4331   30.3128    5.0886 H         1 UNK         0.3459 
    134 H134       32.4217   28.5339    2.6445 H         1 UNK         0.0616 
    135 H135       31.8044   26.9181    2.8615 H         1 UNK         0.0616 
    136 H136       34.7673   24.6215    2.5733 H         1 UNK         0.0634 
    137 H137       33.1713   24.8292    3.2505 H         1 UNK         0.0634 
@<TRIPOS>BOND
     1    1    2 1    
     2    1   72 1    
     3    1   73 1    
     4    1   74 1    
     5    2    3 2    
     6    2    4 am   BACKBONE|DICT|INTERRES
     7    4    5 1    
     8    4   75 1    
     9    5    6 1    
    10    5   35 1    
    11    5   76 1    
    12    6    7 1    
    13    6   77 1    
    14    6   78 1    
    15    7    8 1    
    16    8    9 1    
    17    8   79 1    
    18    8   80 1    
    19    9   10 ar   
    20    9   14 ar   
    21   10   11 ar   
    22   10   81 1    
    23   11   12 ar   
    24   11   71 1    
    25   12   13 ar   
    26   12   82 1    
    27   13   14 ar   
    28   13   15 1    
    29   14   83 1    
    30   15   16 1    
    31   15   84 1    
    32   15   85 1    
    33   16   17 1    
    34   17   18 1    
    35   17   86 1    
    36   17   87 1    
    37   18   19 1    
    38   18   37 1    
    39   18   88 1    
    40   19   20 am   BACKBONE|DICT|INTERRES
    41   19   89 1    
    42   20   21 2    
    43   20   22 1    
    44   22   23 1    
    45   22   24 1    
    46   22   90 1    
    47   23   91 1    
    48   23   92 1    
    49   23   93 1    
    50   24   25 am   BACKBONE|DICT|INTERRES
    51   24   94 1    
    52   25   26 2    
    53   25   27 1    
    54   27   28 1    
    55   27   29 1    
    56   27   95 1    
    57   28   96 1    
    58   28   97 1    
    59   28   98 1    
    60   29   30 am   BACKBONE|DICT|INTERRES
    61   29   99 1    
    62   30   31 2    
    63   30   32 1    
    64   32   33 1    
    65   32   34 1    
    66   32  100 1    
    67   33  101 1    
    68   33  102 1    
    69   33  103 1    
    70   34   35 am   BACKBONE|DICT|INTERRES
    71   34  104 1    
    72   35   36 2    
    73   37   38 2    
    74   37   39 am   BACKBONE|DICT|INTERRES
    75   39   40 1    
    76   39  105 1    
    77   40   41 1    
    78   40   42 1    
    79   40  106 1    
    80   41  107 1    
    81   41  108 1    
    82   41  109 1    
    83   42   43 2    
    84   42   44 am   BACKBONE|DICT|INTERRES
    85   44   45 1    
    86   44  110 1    
    87   45   46 1    
    88   45   47 1    
    89   45  111 1    
    90   46  112 1    
    91   46  113 1    
    92   46  114 1    
    93   47   48 2    
    94   47   49 am   BACKBONE|DICT|INTERRES
    95   49   50 1    
    96   49  115 1    
    97   50   51 1    
    98   50   52 1    
    99   50  116 1    
   100   51  117 1    
   101   51  118 1    
   102   51  119 1    
   103   52   53 2    
   104   52   54 am   BACKBONE|DICT|INTERRES
   105   54   55 1    
   106   54  120 1    
   107   55   56 1    
   108   55   57 1    
   109   55  121 1    
   110   56  122 1    
   111   56  123 1    
   112   56  124 1    
   113   57   58 2    
   114   57   59 am   BACKBONE|DICT|INTERRES
   115   59   60 1    
   116   59  125 1    
   117   60   61 1    
   118   60   62 1    
   119   60  126 1    
   120   61  127 1    
   121   61  128 1    
   122   61  129 1    
   123   62   63 2    
   124   62   64 am   BACKBONE|DICT|INTERRES
   125   64   65 1    
   126   64  130 1    
   127   65   66 1    
   128   65   69 1    
   129   65  131 1    
   130   66   67 am   BACKBONE|DICT|INTERRES
   131   66   68 2    
   132   67  132 1    
   133   67  133 1    
   134   69   70 1    
   135   69  134 1    
   136   69  135 1    
   137   70   71 1    
   138   71  136 1    
   139   71  137 1    
@<TRIPOS>SUBSTRUCTURE
     1 UNK         1 GROUP             0       ****    0 ROOT    
