@<TRIPOS>MOLECULE
3R136
137   139    1
SMALL
USER_CHARGES


@<TRIPOS>ATOM
      1 CA         24.9471   19.7000    1.4325 C.3       0 UNK        -0.1979 
      2 C          25.4920   20.1985    0.1020 C.2       0 UNK         0.4864 
      3 O          24.8585   19.9920   -0.9348 O.2       0 UNK        -0.5359 
      4 N          26.6646   20.8442    0.1233 N.am      1 UNK        -0.4318 
      5 CA         27.3013   21.4669   -1.0407 C.3       1 UNK         0.0824 
      6 C6         28.8236   21.6565   -0.8146 C.3       12 UNK        -0.0944 
      7 S7         29.2536   22.7549    0.5818 S.3       12 UNK        -0.2672 
      8 C8         30.9015   22.1110    0.9859 C.3       12 UNK         0.0333 
      9 C9         31.6056   22.9906    2.0048 C.ar      12 UNK        -0.0807 
     10 C10        32.5099   23.9696    1.5815 C.ar      12 UNK        -0.0894 
     11 C11        33.1976   24.7473    2.5168 C.ar      12 UNK        -0.0804 
     12 C12        32.9707   24.5466    3.8809 C.ar      12 UNK        -0.0824 
     13 C13        32.0553   23.5836    4.3151 C.ar      12 UNK        -0.0762 
     14 C14        31.3755   22.8066    3.3717 C.ar      12 UNK        -0.0782 
     15 C15        31.8151   23.3772    5.8041 C.3       12 UNK         0.0230 
     16 S16        31.0318   24.8277    6.5790 S.3       12 UNK        -0.2608 
     17 C17        29.4187   24.8800    5.7266 C.3       12 UNK        -0.0989 
     18 CA         29.3727   25.9409    4.5888 C.3       5 UNK         0.0716 
     19 N          28.4836   25.5410    3.4926 N.am      5 UNK        -0.4135 
     20 C          27.1469   25.4385    3.5509 C.2       4 UNK         0.5031 
     21 O          26.5078   25.4886    4.6030 O.2       4 UNK        -0.5229 
     22 CA         26.3838   25.2885    2.2163 C.3       4 UNK         0.0329 
     23 CB         25.0977   26.1404    2.2012 C.3       4 UNK        -0.2001 
     24 N          27.1680   25.5590    1.0017 N.am      4 UNK        -0.4303 
     25 C          27.8398   26.6753    0.6743 C.2       3 UNK         0.5044 
     26 O          27.9493   27.6497    1.4211 O.2       3 UNK        -0.5152 
     27 CA         28.5587   26.6966   -0.6872 C.3       3 UNK         0.0319 
     28 CB         30.0706   26.4906   -0.4916 C.3       3 UNK        -0.2001 
     29 N          28.0484   25.6960   -1.6285 N.am      3 UNK        -0.4354 
     30 C          26.8904   25.8074   -2.2979 C.2       2 UNK         0.4964 
     31 O          26.1726   26.8070   -2.2600 O.2       2 UNK        -0.5047 
     32 CA         26.4409   24.5931   -3.1351 C.3       2 UNK         0.0288 
     33 CB         26.8834   24.7560   -4.5985 C.3       2 UNK        -0.2113 
     34 N          26.9197   23.3019   -2.6248 N.am      2 UNK        -0.4145 
     35 C          26.6112   22.7941   -1.4222 C.2       1 UNK         0.5006 
     36 O          25.8739   23.3652   -0.6140 O.2       1 UNK        -0.5103 
     37 C          29.0699   27.3804    5.0871 C.2       5 UNK         0.5055 
     38 O          29.2546   27.6706    6.2703 O.2       5 UNK        -0.5220 
     39 N          28.5821   28.2529    4.1902 N.am      6 UNK        -0.4450 
     40 CA         28.1023   29.5967    4.5200 C.3       6 UNK         0.0367 
     41 CB         26.5704   29.5737    4.6510 C.3       6 UNK        -0.1929 
     42 C          28.5397   30.6526    3.4976 C.2       6 UNK         0.5070 
     43 O          28.8292   31.7799    3.9038 O.2       6 UNK        -0.5237 
     44 N          28.5988   30.2936    2.2064 N.am      7 UNK        -0.4739 
     45 CA         28.9899   31.1853    1.1083 C.3       7 UNK         0.0276 
     46 CB         28.8932   30.4262   -0.2227 C.3       7 UNK        -0.1927 
     47 C          30.4052   31.7572    1.2876 C.2       7 UNK         0.5013 
     48 O          31.2882   31.0467    1.7718 O.2       7 UNK        -0.5193 
     49 N          30.5821   33.0306    0.9060 N.am      8 UNK        -0.4253 
     50 CA         31.8082   33.8270    1.0595 C.3       8 UNK         0.0242 
     51 CB         32.9189   33.3038    0.1221 C.3       8 UNK        -0.2000 
     52 C          32.2677   33.9364    2.5287 C.2       8 UNK         0.4948 
     53 O          33.4628   33.8271    2.8048 O.2       8 UNK        -0.5275 
     54 N          31.3003   34.1204    3.4428 N.am      9 UNK        -0.4246 
     55 CA         31.4599   34.1576    4.9034 C.3       9 UNK         0.0261 
     56 CB         32.2209   35.4282    5.3399 C.3       9 UNK        -0.1959 
     57 C          32.0869   32.8581    5.4472 C.2       9 UNK         0.5033 
     58 O          33.0822   32.9058    6.1727 O.2       9 UNK        -0.5390 
     59 N          31.4885   31.7252    5.0523 N.am      10 UNK        -0.4215 
     60 CA         31.9289   30.3482    5.2991 C.3       10 UNK         0.0240 
     61 CB         31.8274   29.9910    6.7970 C.3       10 UNK        -0.1982 
     62 C          33.3150   30.0602    4.6908 C.2       10 UNK         0.4970 
     63 O          34.2280   29.6337    5.4012 O.2       10 UNK        -0.4916 
     64 N          33.4245   30.2847    3.3753 N.am      11 UNK        -0.4279 
     65 CA         34.5924   29.9848    2.5322 C.3       11 UNK         0.1003 
     66 C          35.8524   30.8402    2.8634 C.2       11 UNK         0.5709 
     67 N          35.7034   32.1050    3.2342 N.am      11 UNK        -0.7358 
     68 O          36.9839   30.3680    2.7699 O.2       11 UNK        -0.4999 
     69 C69        34.8992   28.4605    2.4437 C.3       12 UNK        -0.0954 
     70 S70        33.4523   27.4432    1.9952 S.3       12 UNK        -0.2268 
     71 C71        34.2045   25.7906    2.0644 C.3       12 UNK         0.0203 
     72 H72        24.8141   18.6189    1.4028 H         1 UNK         0.0888 
     73 H73        25.6148   19.9368    2.2608 H         1 UNK         0.0888 
     74 H74        23.9795   20.1579    1.6360 H         1 UNK         0.0888 
     75 H75        27.1263   21.0145    1.0052 H         1 UNK         0.3017 
     76 H76        27.1757   20.7890   -1.8882 H         1 UNK         0.0873 
     77 H77        29.3052   22.0414   -1.7152 H         1 UNK         0.0745 
     78 H78        29.2769   20.6787   -0.6421 H         1 UNK         0.0745 
     79 H79        30.8096   21.0938    1.3700 H         1 UNK         0.0705 
     80 H80        31.4971   22.0437    0.0739 H         1 UNK         0.0705 
     81 H81        32.6879   24.1181    0.5250 H         1 UNK         0.1334 
     82 H82        33.5002   25.1480    4.6077 H         1 UNK         0.1417 
     83 H83        30.6717   22.0527    3.6979 H         1 UNK         0.1562 
     84 H84        32.7702   23.1881    6.2960 H         1 UNK         0.0748 
     85 H85        31.1988   22.4951    5.9852 H         1 UNK         0.0748 
     86 H86        28.6300   25.0547    6.4610 H         1 UNK         0.0940 
     87 H87        29.2167   23.8864    5.3238 H         1 UNK         0.0940 
     88 H88        30.3619   25.9947    4.1317 H         1 UNK         0.0703 
     89 H89        28.9169   25.4592    2.5845 H         1 UNK         0.3081 
     90 H90        26.0902   24.2395    2.1553 H         1 UNK         0.0719 
     91 H91        25.3178   27.2036    2.3028 H         1 UNK         0.0809 
     92 H92        24.5430   25.9999    1.2733 H         1 UNK         0.0809 
     93 H93        24.4302   25.8656    3.0187 H         1 UNK         0.0809 
     94 H94        27.1297   24.8163    0.3133 H         1 UNK         0.2990 
     95 H95        28.4027   27.6844   -1.1233 H         1 UNK         0.0690 
     96 H96        30.6088   26.5838   -1.4348 H         1 UNK         0.0788 
     97 H97        30.2980   25.5106   -0.0715 H         1 UNK         0.0788 
     98 H98        30.4848   27.2364    0.1891 H         1 UNK         0.0788 
     99 H99        28.5849   24.8465   -1.7270 H         1 UNK         0.2993 
    100 H100       25.3491   24.5723   -3.1074 H         1 UNK         0.0949 
    101 H101       26.5188   25.6968   -5.0140 H         1 UNK         0.0767 
    102 H102       27.9699   24.7568   -4.6949 H         1 UNK         0.0767 
    103 H103       26.4898   23.9548   -5.2244 H         1 UNK         0.0767 
    104 H104       27.5333   22.7786   -3.2333 H         1 UNK         0.3013 
    105 H105       28.4489   27.9482    3.2292 H         1 UNK         0.3121 
    106 H106       28.5189   29.9130    5.4789 H         1 UNK         0.0774 
    107 H107       26.2517   28.8908    5.4388 H         1 UNK         0.0815 
    108 H108       26.1835   30.5624    4.9014 H         1 UNK         0.0815 
    109 H109       26.0924   29.2587    3.7227 H         1 UNK         0.0815 
    110 H110       28.3508   29.3442    1.9389 H         1 UNK         0.2987 
    111 H111       28.2756   32.0111    1.0927 H         1 UNK         0.0949 
    112 H112       29.1162   31.0813   -1.0659 H         1 UNK         0.0806 
    113 H113       29.6021   29.5984   -0.2581 H         1 UNK         0.0806 
    114 H114       27.8922   30.0243   -0.3802 H         1 UNK         0.0806 
    115 H115       29.7919   33.5243    0.5131 H         1 UNK         0.3010 
    116 H116       31.5623   34.8421    0.7438 H         1 UNK         0.0829 
    117 H117       32.5768   33.2579   -0.9117 H         1 UNK         0.0813 
    118 H118       33.7908   33.9587    0.1451 H         1 UNK         0.0813 
    119 H119       33.2555   32.3072    0.4082 H         1 UNK         0.0813 
    120 H120       30.3462   34.1614    3.1110 H         1 UNK         0.3038 
    121 H121       30.4549   34.2137    5.3251 H         1 UNK         0.0769 
    122 H122       33.2511   35.4281    4.9820 H         1 UNK         0.0811 
    123 H123       32.2560   35.5066    6.4271 H         1 UNK         0.0811 
    124 H124       31.7360   36.3296    4.9655 H         1 UNK         0.0811 
    125 H125       30.6584   31.8185    4.4710 H         1 UNK         0.3204 
    126 H126       31.2290   29.7039    4.7658 H         1 UNK         0.0748 
    127 H127       32.0556   28.9367    6.9593 H         1 UNK         0.0771 
    128 H128       32.5211   30.5725    7.4048 H         1 UNK         0.0771 
    129 H129       30.8199   30.1625    7.1761 H         1 UNK         0.0771 
    130 H130       32.6124   30.6316    2.8651 H         1 UNK         0.2980 
    131 H131       34.3045   30.3008    1.5294 H         1 UNK         0.0545 
    132 H132       34.7902   32.5529    3.2351 H         1 UNK         0.3459 
    133 H133       36.5221   32.6511    3.4460 H         1 UNK         0.3459 
    134 H134       35.6770   28.2751    1.7008 H         1 UNK         0.0616 
    135 H135       35.2923   28.1007    3.3961 H         1 UNK         0.0616 
    136 H136       34.6079   25.5399    1.0822 H         1 UNK         0.0634 
    137 H137       35.0517   25.7909    2.7521 H         1 UNK         0.0634 
@<TRIPOS>BOND
     1    1    2 1    
     2    1   72 1    
     3    1   73 1    
     4    1   74 1    
     5    2    3 2    
     6    2    4 am   BACKBONE|DICT|INTERRES
     7    4    5 1    
     8    4   75 1    
     9    5    6 1    
    10    5   35 1    
    11    5   76 1    
    12    6    7 1    
    13    6   77 1    
    14    6   78 1    
    15    7    8 1    
    16    8    9 1    
    17    8   79 1    
    18    8   80 1    
    19    9   10 ar   
    20    9   14 ar   
    21   10   11 ar   
    22   10   81 1    
    23   11   12 ar   
    24   11   71 1    
    25   12   13 ar   
    26   12   82 1    
    27   13   14 ar   
    28   13   15 1    
    29   14   83 1    
    30   15   16 1    
    31   15   84 1    
    32   15   85 1    
    33   16   17 1    
    34   17   18 1    
    35   17   86 1    
    36   17   87 1    
    37   18   19 1    
    38   18   37 1    
    39   18   88 1    
    40   19   20 am   BACKBONE|DICT|INTERRES
    41   19   89 1    
    42   20   21 2    
    43   20   22 1    
    44   22   23 1    
    45   22   24 1    
    46   22   90 1    
    47   23   91 1    
    48   23   92 1    
    49   23   93 1    
    50   24   25 am   BACKBONE|DICT|INTERRES
    51   24   94 1    
    52   25   26 2    
    53   25   27 1    
    54   27   28 1    
    55   27   29 1    
    56   27   95 1    
    57   28   96 1    
    58   28   97 1    
    59   28   98 1    
    60   29   30 am   BACKBONE|DICT|INTERRES
    61   29   99 1    
    62   30   31 2    
    63   30   32 1    
    64   32   33 1    
    65   32   34 1    
    66   32  100 1    
    67   33  101 1    
    68   33  102 1    
    69   33  103 1    
    70   34   35 am   BACKBONE|DICT|INTERRES
    71   34  104 1    
    72   35   36 2    
    73   37   38 2    
    74   37   39 am   BACKBONE|DICT|INTERRES
    75   39   40 1    
    76   39  105 1    
    77   40   41 1    
    78   40   42 1    
    79   40  106 1    
    80   41  107 1    
    81   41  108 1    
    82   41  109 1    
    83   42   43 2    
    84   42   44 am   BACKBONE|DICT|INTERRES
    85   44   45 1    
    86   44  110 1    
    87   45   46 1    
    88   45   47 1    
    89   45  111 1    
    90   46  112 1    
    91   46  113 1    
    92   46  114 1    
    93   47   48 2    
    94   47   49 am   BACKBONE|DICT|INTERRES
    95   49   50 1    
    96   49  115 1    
    97   50   51 1    
    98   50   52 1    
    99   50  116 1    
   100   51  117 1    
   101   51  118 1    
   102   51  119 1    
   103   52   53 2    
   104   52   54 am   BACKBONE|DICT|INTERRES
   105   54   55 1    
   106   54  120 1    
   107   55   56 1    
   108   55   57 1    
   109   55  121 1    
   110   56  122 1    
   111   56  123 1    
   112   56  124 1    
   113   57   58 2    
   114   57   59 am   BACKBONE|DICT|INTERRES
   115   59   60 1    
   116   59  125 1    
   117   60   61 1    
   118   60   62 1    
   119   60  126 1    
   120   61  127 1    
   121   61  128 1    
   122   61  129 1    
   123   62   63 2    
   124   62   64 am   BACKBONE|DICT|INTERRES
   125   64   65 1    
   126   64  130 1    
   127   65   66 1    
   128   65   69 1    
   129   65  131 1    
   130   66   67 am   BACKBONE|DICT|INTERRES
   131   66   68 2    
   132   67  132 1    
   133   67  133 1    
   134   69   70 1    
   135   69  134 1    
   136   69  135 1    
   137   70   71 1    
   138   71  136 1    
   139   71  137 1    
@<TRIPOS>SUBSTRUCTURE
     1 UNK         1 GROUP             0       ****    0 ROOT    
