@<TRIPOS>MOLECULE
3R136
137   139    1
SMALL
USER_CHARGES


@<TRIPOS>ATOM
      1 CA         28.8591   20.7963   -2.4393 C.3       0 UNK        -0.1979 
      2 C          30.0342   21.7448   -2.2533 C.2       0 UNK         0.4864 
      3 O          30.6812   22.1165   -3.2333 O.2       0 UNK        -0.5359 
      4 N          30.3140   22.1368   -1.0030 N.am      1 UNK        -0.4318 
      5 CA         31.4029   23.0505   -0.6289 C.3       1 UNK         0.0824 
      6 C6         31.6467   23.0601    0.8986 C.3       12 UNK        -0.0944 
      7 S7         32.0627   21.4225    1.5917 S.3       12 UNK        -0.2672 
      8 C8         30.6534   21.1065    2.7185 C.3       12 UNK         0.0333 
      9 C9         30.4475   22.1106    3.8595 C.ar      12 UNK        -0.0807 
     10 C10        31.3691   23.1212    4.1641 C.ar      12 UNK        -0.0894 
     11 C11        31.1054   24.0529    5.1702 C.ar      12 UNK        -0.0804 
     12 C12        29.9338   23.9456    5.9228 C.ar      12 UNK        -0.0824 
     13 C13        29.0140   22.9291    5.6507 C.ar      12 UNK        -0.0762 
     14 C14        29.2752   22.0216    4.6184 C.ar      12 UNK        -0.0782 
     15 C15        27.7352   22.8063    6.4658 C.3       12 UNK         0.0230 
     16 S16        26.3367   23.6515    5.6616 S.3       12 UNK        -0.2608 
     17 C17        26.6651   25.4029    6.0592 C.3       12 UNK        -0.0989 
     18 CA         27.1318   26.2230    4.8305 C.3       5 UNK         0.0716 
     19 N          26.1416   26.2106    3.7498 N.am      5 UNK        -0.4135 
     20 C          26.3107   26.7703    2.5461 C.2       4 UNK         0.5031 
     21 O          27.3581   27.3132    2.1771 O.2       4 UNK        -0.5229 
     22 CA         25.0996   26.7393    1.6055 C.3       4 UNK         0.0329 
     23 CB         24.0022   27.7162    2.0737 C.3       4 UNK        -0.2001 
     24 N          25.5665   27.0939    0.2707 N.am      4 UNK        -0.4303 
     25 C          24.9351   26.8751   -0.8872 C.2       3 UNK         0.5044 
     26 O          23.8036   26.3965   -0.9743 O.2       3 UNK        -0.5152 
     27 CA         25.7017   27.2408   -2.1749 C.3       3 UNK         0.0319 
     28 CB         25.3083   28.6504   -2.6465 C.3       3 UNK        -0.2001 
     29 N          27.1634   27.1680   -2.0448 N.am      3 UNK        -0.4354 
     30 C          27.8526   26.0507   -1.7727 C.2       2 UNK         0.4964 
     31 O          27.3282   24.9400   -1.6398 O.2       2 UNK        -0.5047 
     32 CA         29.3736   26.1966   -1.6041 C.3       2 UNK         0.0288 
     33 CB         29.7393   27.2708   -0.5552 C.3       2 UNK        -0.2113 
     34 N          29.8898   24.8899   -1.2100 N.am      2 UNK        -0.4145 
     35 C          31.1645   24.4988   -1.1099 C.2       1 UNK         0.5006 
     36 O          32.1311   25.2261   -1.3465 O.2       1 UNK        -0.5103 
     37 C          27.4475   27.6767    5.2383 C.2       5 UNK         0.5055 
     38 O          26.5474   28.3800    5.7028 O.2       5 UNK        -0.5220 
     39 N          28.7047   28.0922    5.0322 N.am      6 UNK        -0.4450 
     40 CA         29.2395   29.4392    5.2621 C.3       6 UNK         0.0367 
     41 CB         29.2558   29.7777    6.7678 C.3       6 UNK        -0.1929 
     42 C          28.5640   30.5288    4.4021 C.2       6 UNK         0.5070 
     43 O          28.4040   31.6602    4.8630 O.2       6 UNK        -0.5237 
     44 N          28.2057   30.1880    3.1523 N.am      7 UNK        -0.4739 
     45 CA         27.6835   31.1327    2.1514 C.3       7 UNK         0.0276 
     46 CB         27.1433   30.3545    0.9412 C.3       7 UNK        -0.1927 
     47 C          28.7157   32.1821    1.6914 C.2       7 UNK         0.5013 
     48 O          28.3252   33.2463    1.2096 O.2       7 UNK        -0.5193 
     49 N          30.0027   31.8663    1.8618 N.am      8 UNK        -0.4253 
     50 CA         31.1443   32.7601    1.7107 C.3       8 UNK         0.0242 
     51 CB         31.9455   32.3479    0.4641 C.3       8 UNK        -0.2000 
     52 C          32.0006   32.6169    2.9736 C.2       8 UNK         0.4948 
     53 O          31.9388   31.5726    3.6282 O.2       8 UNK        -0.5275 
     54 N          32.8184   33.6347    3.2745 N.am      9 UNK        -0.4246 
     55 CA         33.6932   33.6825    4.4559 C.3       9 UNK         0.0261 
     56 CB         34.3728   35.0594    4.5330 C.3       9 UNK        -0.1959 
     57 C          34.7461   32.5584    4.5139 C.2       9 UNK         0.5033 
     58 O          35.1067   32.1233    5.6082 O.2       9 UNK        -0.5390 
     59 N          35.1968   32.0953    3.3408 N.am      10 UNK        -0.4215 
     60 CA         36.0959   30.9496    3.1780 C.3       10 UNK         0.0240 
     61 CB         36.9295   31.1610    1.9017 C.3       10 UNK        -0.1982 
     62 C          35.3549   29.5970    3.1214 C.2       10 UNK         0.4970 
     63 O          36.0201   28.5628    3.0459 O.2       10 UNK        -0.4916 
     64 N          34.0142   29.6172    3.1352 N.am      11 UNK        -0.4279 
     65 CA         33.1231   28.4707    2.9180 C.3       11 UNK         0.1003 
     66 C          33.2460   27.8578    1.4872 C.2       11 UNK         0.5709 
     67 N          32.8093   26.6230    1.2848 N.am      11 UNK        -0.7358 
     68 O          33.6772   28.5168    0.5425 O.2       11 UNK        -0.4999 
     69 C69        33.1857   27.4461    4.0900 C.3       12 UNK        -0.0954 
     70 S70        31.5912   26.6003    4.3344 S.3       12 UNK        -0.2268 
     71 C71        32.0683   25.2047    5.3945 C.3       12 UNK         0.0203 
     72 H72        29.1902   19.8791   -2.9256 H         1 UNK         0.0888 
     73 H73        28.3965   20.5281   -1.4896 H         1 UNK         0.0888 
     74 H74        28.0991   21.2607   -3.0672 H         1 UNK         0.0888 
     75 H75        29.7642   21.7772   -0.2365 H         1 UNK         0.3017 
     76 H76        32.3137   22.6974   -1.1176 H         1 UNK         0.0873 
     77 H77        32.4783   23.7242    1.1418 H         1 UNK         0.0745 
     78 H78        30.7751   23.4679    1.4146 H         1 UNK         0.0745 
     79 H79        30.7869   20.1154    3.1540 H         1 UNK         0.0705 
     80 H80        29.7434   21.0578    2.1188 H         1 UNK         0.0705 
     81 H81        32.2860   23.2185    3.6020 H         1 UNK         0.1334 
     82 H82        29.7319   24.6640    6.7053 H         1 UNK         0.1417 
     83 H83        28.5538   21.2454    4.3995 H         1 UNK         0.1562 
     84 H84        27.8788   23.1956    7.4750 H         1 UNK         0.0748 
     85 H85        27.4811   21.7521    6.5865 H         1 UNK         0.0748 
     86 H86        27.4035   25.4609    6.8607 H         1 UNK         0.0940 
     87 H87        25.7482   25.8268    6.4742 H         1 UNK         0.0940 
     88 H88        28.0426   25.7625    4.4406 H         1 UNK         0.0703 
     89 H89        25.2520   25.7914    3.9756 H         1 UNK         0.3081 
     90 H90        24.7059   25.7211    1.5820 H         1 UNK         0.0719 
     91 H91        23.6341   27.4499    3.0650 H         1 UNK         0.0809 
     92 H92        23.1435   27.7055    1.4025 H         1 UNK         0.0809 
     93 H93        24.3681   28.7415    2.1295 H         1 UNK         0.0809 
     94 H94        26.5155   27.4475    0.2610 H         1 UNK         0.2990 
     95 H95        25.4024   26.5262   -2.9446 H         1 UNK         0.0690 
     96 H96        25.7686   28.8927   -3.6045 H         1 UNK         0.0788 
     97 H97        25.6044   29.4146   -1.9265 H         1 UNK         0.0788 
     98 H98        24.2283   28.7298   -2.7794 H         1 UNK         0.0788 
     99 H99        27.6686   28.0353   -2.1555 H         1 UNK         0.2993 
    100 H100       29.7986   26.4645   -2.5734 H         1 UNK         0.0949 
    101 H101       29.3215   28.2446   -0.8083 H         1 UNK         0.0767 
    102 H102       29.3800   27.0026    0.4388 H         1 UNK         0.0767 
    103 H103       30.8171   27.4115   -0.4916 H         1 UNK         0.0767 
    104 H104       29.1538   24.2134   -1.0428 H         1 UNK         0.3013 
    105 H105       29.3623   27.4368    4.6277 H         1 UNK         0.3121 
    106 H106       30.2787   29.4111    4.9300 H         1 UNK         0.0774 
    107 H107       29.7856   30.7134    6.9510 H         1 UNK         0.0815 
    108 H108       28.2484   29.8913    7.1692 H         1 UNK         0.0815 
    109 H109       29.7629   29.0031    7.3428 H         1 UNK         0.0815 
    110 H110       28.2928   29.2199    2.8633 H         1 UNK         0.2987 
    111 H111       26.8533   31.6783    2.6053 H         1 UNK         0.0949 
    112 H112       26.3071   29.7193    1.2259 H         1 UNK         0.0806 
    113 H113       26.7804   31.0316    0.1666 H         1 UNK         0.0806 
    114 H114       27.9105   29.7238    0.4928 H         1 UNK         0.0806 
    115 H115       30.2139   31.0054    2.3483 H         1 UNK         0.3010 
    116 H116       30.8139   33.7971    1.6197 H         1 UNK         0.0829 
    117 H117       31.3312   32.4051   -0.4346 H         1 UNK         0.0813 
    118 H118       32.8028   33.0044    0.3111 H         1 UNK         0.0813 
    119 H119       32.3235   31.3271    0.5437 H         1 UNK         0.0813 
    120 H120       32.8187   34.4516    2.6795 H         1 UNK         0.3038 
    121 H121       33.0558   33.5687    5.3355 H         1 UNK         0.0769 
    122 H122       35.0007   35.2506    3.6619 H         1 UNK         0.0811 
    123 H123       35.0103   35.1309    5.4156 H         1 UNK         0.0811 
    124 H124       33.6385   35.8622    4.6022 H         1 UNK         0.0811 
    125 H125       34.8511   32.5253    2.4951 H         1 UNK         0.3204 
    126 H126       36.7813   30.9072    4.0272 H         1 UNK         0.0748 
    127 H127       37.6554   30.3574    1.7695 H         1 UNK         0.0771 
    128 H128       36.3028   31.1828    1.0090 H         1 UNK         0.0771 
    129 H129       37.4900   32.0952    1.9433 H         1 UNK         0.0771 
    130 H130       33.5332   30.5027    3.2460 H         1 UNK         0.2980 
    131 H131       32.1304   28.9218    2.9281 H         1 UNK         0.0545 
    132 H132       32.4163   26.0995    2.0513 H         1 UNK         0.3459 
    133 H133       32.8295   26.2357    0.3497 H         1 UNK         0.3459 
    134 H134       33.4199   27.9539    5.0271 H         1 UNK         0.0616 
    135 H135       33.9836   26.7189    3.9301 H         1 UNK         0.0616 
    136 H136       33.0872   24.8872    5.1676 H         1 UNK         0.0634 
    137 H137       32.0628   25.5200    6.4389 H         1 UNK         0.0634 
@<TRIPOS>BOND
     1    1    2 1    
     2    1   72 1    
     3    1   73 1    
     4    1   74 1    
     5    2    3 2    
     6    2    4 am   BACKBONE|DICT|INTERRES
     7    4    5 1    
     8    4   75 1    
     9    5    6 1    
    10    5   35 1    
    11    5   76 1    
    12    6    7 1    
    13    6   77 1    
    14    6   78 1    
    15    7    8 1    
    16    8    9 1    
    17    8   79 1    
    18    8   80 1    
    19    9   10 ar   
    20    9   14 ar   
    21   10   11 ar   
    22   10   81 1    
    23   11   12 ar   
    24   11   71 1    
    25   12   13 ar   
    26   12   82 1    
    27   13   14 ar   
    28   13   15 1    
    29   14   83 1    
    30   15   16 1    
    31   15   84 1    
    32   15   85 1    
    33   16   17 1    
    34   17   18 1    
    35   17   86 1    
    36   17   87 1    
    37   18   19 1    
    38   18   37 1    
    39   18   88 1    
    40   19   20 am   BACKBONE|DICT|INTERRES
    41   19   89 1    
    42   20   21 2    
    43   20   22 1    
    44   22   23 1    
    45   22   24 1    
    46   22   90 1    
    47   23   91 1    
    48   23   92 1    
    49   23   93 1    
    50   24   25 am   BACKBONE|DICT|INTERRES
    51   24   94 1    
    52   25   26 2    
    53   25   27 1    
    54   27   28 1    
    55   27   29 1    
    56   27   95 1    
    57   28   96 1    
    58   28   97 1    
    59   28   98 1    
    60   29   30 am   BACKBONE|DICT|INTERRES
    61   29   99 1    
    62   30   31 2    
    63   30   32 1    
    64   32   33 1    
    65   32   34 1    
    66   32  100 1    
    67   33  101 1    
    68   33  102 1    
    69   33  103 1    
    70   34   35 am   BACKBONE|DICT|INTERRES
    71   34  104 1    
    72   35   36 2    
    73   37   38 2    
    74   37   39 am   BACKBONE|DICT|INTERRES
    75   39   40 1    
    76   39  105 1    
    77   40   41 1    
    78   40   42 1    
    79   40  106 1    
    80   41  107 1    
    81   41  108 1    
    82   41  109 1    
    83   42   43 2    
    84   42   44 am   BACKBONE|DICT|INTERRES
    85   44   45 1    
    86   44  110 1    
    87   45   46 1    
    88   45   47 1    
    89   45  111 1    
    90   46  112 1    
    91   46  113 1    
    92   46  114 1    
    93   47   48 2    
    94   47   49 am   BACKBONE|DICT|INTERRES
    95   49   50 1    
    96   49  115 1    
    97   50   51 1    
    98   50   52 1    
    99   50  116 1    
   100   51  117 1    
   101   51  118 1    
   102   51  119 1    
   103   52   53 2    
   104   52   54 am   BACKBONE|DICT|INTERRES
   105   54   55 1    
   106   54  120 1    
   107   55   56 1    
   108   55   57 1    
   109   55  121 1    
   110   56  122 1    
   111   56  123 1    
   112   56  124 1    
   113   57   58 2    
   114   57   59 am   BACKBONE|DICT|INTERRES
   115   59   60 1    
   116   59  125 1    
   117   60   61 1    
   118   60   62 1    
   119   60  126 1    
   120   61  127 1    
   121   61  128 1    
   122   61  129 1    
   123   62   63 2    
   124   62   64 am   BACKBONE|DICT|INTERRES
   125   64   65 1    
   126   64  130 1    
   127   65   66 1    
   128   65   69 1    
   129   65  131 1    
   130   66   67 am   BACKBONE|DICT|INTERRES
   131   66   68 2    
   132   67  132 1    
   133   67  133 1    
   134   69   70 1    
   135   69  134 1    
   136   69  135 1    
   137   70   71 1    
   138   71  136 1    
   139   71  137 1    
@<TRIPOS>SUBSTRUCTURE
     1 UNK         1 GROUP             0       ****    0 ROOT    
