@<TRIPOS>MOLECULE
3R136
137   139    1
SMALL
USER_CHARGES


@<TRIPOS>ATOM
      1 CA         29.6625   21.3542   -2.9891 C.3       0 UNK        -0.1979 
      2 C          29.1557   22.7556   -2.6838 C.2       0 UNK         0.4864 
      3 O          28.5751   23.4032   -3.5574 O.2       0 UNK        -0.5359 
      4 N          29.3588   23.2308   -1.4479 N.am      1 UNK        -0.4318 
      5 CA         28.9505   24.5577   -0.9716 C.3       1 UNK         0.0824 
      6 C6         29.8208   25.0408    0.2158 C.3       12 UNK        -0.0944 
      7 S7         31.5794   25.2027   -0.2374 S.3       12 UNK        -0.2672 
      8 C8         32.3534   23.8469    0.7014 C.3       12 UNK         0.0333 
      9 C9         32.6663   24.2537    2.1347 C.ar      12 UNK        -0.0807 
     10 C10        33.8775   24.8885    2.4327 C.ar      12 UNK        -0.0894 
     11 C11        34.1830   25.2547    3.7472 C.ar      12 UNK        -0.0804 
     12 C12        33.2619   24.9911    4.7625 C.ar      12 UNK        -0.0824 
     13 C13        32.0474   24.3616    4.4817 C.ar      12 UNK        -0.0762 
     14 C14        31.7608   23.9810    3.1660 C.ar      12 UNK        -0.0782 
     15 C15        31.0726   24.0778    5.6192 C.3       12 UNK         0.0230 
     16 S16        29.3691   24.6319    5.2835 S.3       12 UNK        -0.2608 
     17 C17        29.5694   26.4165    4.9306 C.3       12 UNK        -0.0989 
     18 CA         29.0970   26.7737    3.4942 C.3       5 UNK         0.0716 
     19 N          27.7322   26.3072    3.1798 N.am      5 UNK        -0.4135 
     20 C          26.6056   26.5747    3.8565 C.2       4 UNK         0.5031 
     21 O          26.5373   27.3729    4.7923 O.2       4 UNK        -0.5229 
     22 CA         25.3450   25.8641    3.3470 C.3       4 UNK         0.0329 
     23 CB         24.1302   26.0066    4.2897 C.3       4 UNK        -0.2001 
     24 N          25.0321   26.2862    1.9797 N.am      4 UNK        -0.4303 
     25 C          24.6048   27.4843    1.5500 C.2       3 UNK         0.5044 
     26 O          24.3667   28.4335    2.2964 O.2       3 UNK        -0.5152 
     27 CA         24.4289   27.6765    0.0254 C.3       3 UNK         0.0319 
     28 CB         25.0800   28.9882   -0.4475 C.3       3 UNK        -0.2001 
     29 N          24.9581   26.5658   -0.7757 N.am      3 UNK        -0.4354 
     30 C          24.3597   25.3772   -0.9379 C.2       2 UNK         0.4964 
     31 O          23.2344   25.1206   -0.5100 O.2       2 UNK        -0.5047 
     32 CA         25.1542   24.2687   -1.6536 C.3       2 UNK         0.0288 
     33 CB         24.6480   24.0961   -3.0951 C.3       2 UNK        -0.2113 
     34 N          26.6137   24.4347   -1.6828 N.am      2 UNK        -0.4145 
     35 C          27.4431   24.5689   -0.6368 C.2       1 UNK         0.5006 
     36 O          27.0678   24.6835    0.5339 O.2       1 UNK        -0.5103 
     37 C          29.3332   28.2657    3.1635 C.2       5 UNK         0.5055 
     38 O          30.4741   28.6538    2.9022 O.2       5 UNK        -0.5220 
     39 N          28.2650   29.0750    3.1160 N.am      6 UNK        -0.4450 
     40 CA         28.2626   30.4952    2.7484 C.3       6 UNK         0.0367 
     41 CB         26.8389   31.0519    2.8952 C.3       6 UNK        -0.1929 
     42 C          28.8053   30.7840    1.3369 C.2       6 UNK         0.5070 
     43 O          29.3300   31.8731    1.1095 O.2       6 UNK        -0.5237 
     44 N          28.7350   29.7940    0.4338 N.am      7 UNK        -0.4739 
     45 CA         29.3295   29.8331   -0.9086 C.3       7 UNK         0.0276 
     46 CB         28.9043   28.5823   -1.6952 C.3       7 UNK        -0.1927 
     47 C          30.8658   29.9589   -0.9002 C.2       7 UNK         0.5013 
     48 O          31.4283   30.4893   -1.8583 O.2       7 UNK        -0.5193 
     49 N          31.5048   29.4995    0.1842 N.am      8 UNK        -0.4253 
     50 CA         32.9342   29.6503    0.4553 C.3       8 UNK         0.0242 
     51 CB         33.5270   28.2611    0.7435 C.3       8 UNK        -0.2000 
     52 C          33.1814   30.6412    1.6108 C.2       8 UNK         0.4948 
     53 O          34.2502   30.6061    2.2193 O.2       8 UNK        -0.5275 
     54 N          32.1963   31.5081    1.8978 N.am      9 UNK        -0.4246 
     55 CA         32.1834   32.5319    2.9496 C.3       9 UNK         0.0261 
     56 CB         33.2752   33.5966    2.7056 C.3       9 UNK        -0.1959 
     57 C          32.2062   31.9652    4.3843 C.2       9 UNK         0.5033 
     58 O          32.6528   32.6625    5.2972 O.2       9 UNK        -0.5390 
     59 N          31.6920   30.7375    4.5665 N.am      10 UNK        -0.4215 
     60 CA         31.5269   30.0295    5.8422 C.3       10 UNK         0.0240 
     61 CB         30.4443   30.7083    6.7080 C.3       10 UNK        -0.1982 
     62 C          32.8548   29.7974    6.5892 C.2       10 UNK         0.4970 
     63 O          32.9490   30.0610    7.7900 O.2       10 UNK        -0.4916 
     64 N          33.8534   29.2978    5.8523 N.am      11 UNK        -0.4279 
     65 CA         35.1481   28.8183    6.3599 C.3       11 UNK         0.1003 
     66 C          35.0418   27.6519    7.3863 C.2       11 UNK         0.5709 
     67 N          36.1085   27.3859    8.1285 N.am      11 UNK        -0.7358 
     68 O          34.0226   26.9761    7.5099 O.2       11 UNK        -0.4999 
     69 C69        36.1397   28.4966    5.2005 C.3       12 UNK        -0.0954 
     70 S70        35.3867   27.7174    3.7292 S.3       12 UNK        -0.2268 
     71 C71        35.5008   25.9402    4.0766 C.3       12 UNK         0.0203 
     72 H72        30.1584   20.9035   -2.1296 H         1 UNK         0.0888 
     73 H73        28.8326   20.7103   -3.2790 H         1 UNK         0.0888 
     74 H74        30.3745   21.3852   -3.8133 H         1 UNK         0.0888 
     75 H75        29.8173   22.6459   -0.7650 H         1 UNK         0.3017 
     76 H76        29.0951   25.2708   -1.7865 H         1 UNK         0.0873 
     77 H77        29.7122   24.3759    1.0733 H         1 UNK         0.0745 
     78 H78        29.4871   26.0256    0.5437 H         1 UNK         0.0745 
     79 H79        31.7144   22.9631    0.6808 H         1 UNK         0.0705 
     80 H80        33.2769   23.5604    0.1960 H         1 UNK         0.0705 
     81 H81        34.5817   25.1029    1.6403 H         1 UNK         0.1334 
     82 H82        33.4949   25.2722    5.7787 H         1 UNK         0.1417 
     83 H83        30.8287   23.4783    2.9489 H         1 UNK         0.1562 
     84 H84        31.4084   24.5494    6.5444 H         1 UNK         0.0748 
     85 H85        31.0603   23.0040    5.8096 H         1 UNK         0.0748 
     86 H86        30.6159   26.6955    5.0656 H         1 UNK         0.0940 
     87 H87        29.0104   26.9810    5.6788 H         1 UNK         0.0940 
     88 H88        29.7527   26.2278    2.8169 H         1 UNK         0.0703 
     89 H89        27.6577   25.6725    2.3927 H         1 UNK         0.3081 
     90 H90        25.5873   24.8014    3.2916 H         1 UNK         0.0719 
     91 H91        23.8469   27.0478    4.4453 H         1 UNK         0.0809 
     92 H92        23.2613   25.4772    3.8989 H         1 UNK         0.0809 
     93 H93        24.3533   25.5861    5.2709 H         1 UNK         0.0809 
     94 H94        25.2694   25.6059    1.2678 H         1 UNK         0.2990 
     95 H95        23.3555   27.7516   -0.1610 H         1 UNK         0.0690 
     96 H96        24.9749   29.1229   -1.5242 H         1 UNK         0.0788 
     97 H97        26.1401   29.0204   -0.2032 H         1 UNK         0.0788 
     98 H98        24.6134   29.8511    0.0297 H         1 UNK         0.0788 
     99 H99        25.8795   26.6874   -1.1683 H         1 UNK         0.2993 
    100 H100       24.9535   23.3433   -1.1098 H         1 UNK         0.0949 
    101 H101       25.1143   23.2378   -3.5797 H         1 UNK         0.0767 
    102 H102       23.5697   23.9306   -3.1165 H         1 UNK         0.0767 
    103 H103       24.8555   24.9782   -3.7023 H         1 UNK         0.0767 
    104 H104       27.0579   24.2923   -2.5857 H         1 UNK         0.3013 
    105 H105       27.3816   28.6850    3.4263 H         1 UNK         0.3121 
    106 H106       28.9083   31.0168    3.4576 H         1 UNK         0.0774 
    107 H107       26.8117   32.1198    2.6736 H         1 UNK         0.0815 
    108 H108       26.1415   30.5604    2.2159 H         1 UNK         0.0815 
    109 H109       26.4636   30.9231    3.9106 H         1 UNK         0.0815 
    110 H110       28.2938   28.9318    0.7144 H         1 UNK         0.2987 
    111 H111       28.9358   30.7138   -1.4211 H         1 UNK         0.0949 
    112 H112       29.2484   27.6693   -1.2116 H         1 UNK         0.0806 
    113 H113       27.8226   28.5245   -1.8084 H         1 UNK         0.0806 
    114 H114       29.3281   28.5936   -2.7006 H         1 UNK         0.0806 
    115 H115       30.9608   29.0952    0.9395 H         1 UNK         0.3010 
    116 H116       33.4473   30.0590   -0.4173 H         1 UNK         0.0829 
    117 H117       33.3744   27.5862   -0.0979 H         1 UNK         0.0813 
    118 H118       34.6026   28.3189    0.9117 H         1 UNK         0.0813 
    119 H119       33.0761   27.8049    1.6261 H         1 UNK         0.0813 
    120 H120       31.3497   31.4700    1.3395 H         1 UNK         0.3038 
    121 H121       31.2200   33.0347    2.8540 H         1 UNK         0.0769 
    122 H122       33.1555   34.4429    3.3831 H         1 UNK         0.0811 
    123 H123       33.2278   33.9890    1.6899 H         1 UNK         0.0811 
    124 H124       34.2763   33.1949    2.8651 H         1 UNK         0.0811 
    125 H125       31.3834   30.2174    3.7500 H         1 UNK         0.3204 
    126 H126       31.1573   29.0355    5.5905 H         1 UNK         0.0748 
    127 H127       30.2411   30.1255    7.6073 H         1 UNK         0.0771 
    128 H128       30.7473   31.7056    7.0284 H         1 UNK         0.0771 
    129 H129       29.5038   30.8007    6.1646 H         1 UNK         0.0771 
    130 H130       33.6948   29.1242    4.8699 H         1 UNK         0.2980 
    131 H131       35.5699   29.6544    6.9208 H         1 UNK         0.0545 
    132 H132       36.9544   27.9276    8.0435 H         1 UNK         0.3459 
    133 H133       36.0623   26.6320    8.7959 H         1 UNK         0.3459 
    134 H134       36.5730   29.4353    4.8522 H         1 UNK         0.0616 
    135 H135       36.9908   27.9008    5.5352 H         1 UNK         0.0616 
    136 H136       35.7634   25.7734    5.1220 H         1 UNK         0.0634 
    137 H137       36.3085   25.5098    3.4830 H         1 UNK         0.0634 
@<TRIPOS>BOND
     1    1    2 1    
     2    1   72 1    
     3    1   73 1    
     4    1   74 1    
     5    2    3 2    
     6    2    4 am   BACKBONE|DICT|INTERRES
     7    4    5 1    
     8    4   75 1    
     9    5    6 1    
    10    5   35 1    
    11    5   76 1    
    12    6    7 1    
    13    6   77 1    
    14    6   78 1    
    15    7    8 1    
    16    8    9 1    
    17    8   79 1    
    18    8   80 1    
    19    9   10 ar   
    20    9   14 ar   
    21   10   11 ar   
    22   10   81 1    
    23   11   12 ar   
    24   11   71 1    
    25   12   13 ar   
    26   12   82 1    
    27   13   14 ar   
    28   13   15 1    
    29   14   83 1    
    30   15   16 1    
    31   15   84 1    
    32   15   85 1    
    33   16   17 1    
    34   17   18 1    
    35   17   86 1    
    36   17   87 1    
    37   18   19 1    
    38   18   37 1    
    39   18   88 1    
    40   19   20 am   BACKBONE|DICT|INTERRES
    41   19   89 1    
    42   20   21 2    
    43   20   22 1    
    44   22   23 1    
    45   22   24 1    
    46   22   90 1    
    47   23   91 1    
    48   23   92 1    
    49   23   93 1    
    50   24   25 am   BACKBONE|DICT|INTERRES
    51   24   94 1    
    52   25   26 2    
    53   25   27 1    
    54   27   28 1    
    55   27   29 1    
    56   27   95 1    
    57   28   96 1    
    58   28   97 1    
    59   28   98 1    
    60   29   30 am   BACKBONE|DICT|INTERRES
    61   29   99 1    
    62   30   31 2    
    63   30   32 1    
    64   32   33 1    
    65   32   34 1    
    66   32  100 1    
    67   33  101 1    
    68   33  102 1    
    69   33  103 1    
    70   34   35 am   BACKBONE|DICT|INTERRES
    71   34  104 1    
    72   35   36 2    
    73   37   38 2    
    74   37   39 am   BACKBONE|DICT|INTERRES
    75   39   40 1    
    76   39  105 1    
    77   40   41 1    
    78   40   42 1    
    79   40  106 1    
    80   41  107 1    
    81   41  108 1    
    82   41  109 1    
    83   42   43 2    
    84   42   44 am   BACKBONE|DICT|INTERRES
    85   44   45 1    
    86   44  110 1    
    87   45   46 1    
    88   45   47 1    
    89   45  111 1    
    90   46  112 1    
    91   46  113 1    
    92   46  114 1    
    93   47   48 2    
    94   47   49 am   BACKBONE|DICT|INTERRES
    95   49   50 1    
    96   49  115 1    
    97   50   51 1    
    98   50   52 1    
    99   50  116 1    
   100   51  117 1    
   101   51  118 1    
   102   51  119 1    
   103   52   53 2    
   104   52   54 am   BACKBONE|DICT|INTERRES
   105   54   55 1    
   106   54  120 1    
   107   55   56 1    
   108   55   57 1    
   109   55  121 1    
   110   56  122 1    
   111   56  123 1    
   112   56  124 1    
   113   57   58 2    
   114   57   59 am   BACKBONE|DICT|INTERRES
   115   59   60 1    
   116   59  125 1    
   117   60   61 1    
   118   60   62 1    
   119   60  126 1    
   120   61  127 1    
   121   61  128 1    
   122   61  129 1    
   123   62   63 2    
   124   62   64 am   BACKBONE|DICT|INTERRES
   125   64   65 1    
   126   64  130 1    
   127   65   66 1    
   128   65   69 1    
   129   65  131 1    
   130   66   67 am   BACKBONE|DICT|INTERRES
   131   66   68 2    
   132   67  132 1    
   133   67  133 1    
   134   69   70 1    
   135   69  134 1    
   136   69  135 1    
   137   70   71 1    
   138   71  136 1    
   139   71  137 1    
@<TRIPOS>SUBSTRUCTURE
     1 UNK         1 GROUP             0       ****    0 ROOT    
