@<TRIPOS>MOLECULE
3R136
137   139    1
SMALL
USER_CHARGES


@<TRIPOS>ATOM
      1 CA         31.9997   28.6327   -2.4651 C.3       0 UNK        -0.1979 
      2 C          32.4280   27.2218   -2.0820 C.2       0 UNK         0.4864 
      3 O          33.3604   26.6908   -2.6822 O.2       0 UNK        -0.5359 
      4 N          31.7857   26.5670   -1.1040 N.am      1 UNK        -0.4318 
      5 CA         30.6352   27.0260   -0.3109 C.3       1 UNK         0.0824 
      6 C6         30.5827   26.2890    1.0519 C.3       12 UNK        -0.0944 
      7 S7         30.4562   24.4700    0.9071 S.3       12 UNK        -0.2672 
      8 C8         31.5326   23.9236    2.2715 C.3       12 UNK         0.0333 
      9 C9         30.9751   24.3430    3.6238 C.ar      12 UNK        -0.0807 
     10 C10        31.6325   25.3037    4.3984 C.ar      12 UNK        -0.0894 
     11 C11        31.1054   25.7036    5.6309 C.ar      12 UNK        -0.0804 
     12 C12        29.9085   25.1399    6.0826 C.ar      12 UNK        -0.0824 
     13 C13        29.2426   24.1795    5.3146 C.ar      12 UNK        -0.0762 
     14 C14        29.7880   23.7755    4.0936 C.ar      12 UNK        -0.0782 
     15 C15        27.9192   23.5949    5.7839 C.3       12 UNK         0.0230 
     16 S16        26.5238   24.2210    4.7929 S.3       12 UNK        -0.2608 
     17 C17        26.5614   26.0033    5.1894 C.3       12 UNK        -0.0989 
     18 CA         27.2222   26.8601    4.0699 C.3       5 UNK         0.0716 
     19 N          26.5855   26.6963    2.7547 N.am      5 UNK        -0.4135 
     20 C          25.3284   27.0318    2.4241 C.2       4 UNK         0.5031 
     21 O          24.5231   27.5466    3.2005 O.2       4 UNK        -0.5229 
     22 CA         24.8993   26.7824    0.9700 C.3       4 UNK         0.0329 
     23 CB         24.9154   28.1003    0.1780 C.3       4 UNK        -0.2001 
     24 N          25.7606   25.8138    0.2898 N.am      4 UNK        -0.4303 
     25 C          25.5716   24.4855    0.2938 C.2       3 UNK         0.5044 
     26 O          24.6464   23.9375    0.8947 O.2       3 UNK        -0.5152 
     27 CA         26.5840   23.6155   -0.4868 C.3       3 UNK         0.0319 
     28 CB         25.9081   22.4296   -1.2070 C.3       3 UNK        -0.2001 
     29 N          27.4400   24.3749   -1.4088 N.am      3 UNK        -0.4354 
     30 C          27.0631   25.1041   -2.4731 C.2       2 UNK         0.4964 
     31 O          25.9153   25.1216   -2.9193 O.2       2 UNK        -0.5047 
     32 CA         28.1429   25.9991   -3.1209 C.3       2 UNK         0.0288 
     33 CB         27.5531   27.3183   -3.6661 C.3       2 UNK        -0.2113 
     34 N          29.2924   26.2828   -2.2465 N.am      2 UNK        -0.4145 
     35 C          29.2834   26.8989   -1.0508 C.2       1 UNK         0.5006 
     36 O          28.2560   27.2948   -0.4946 O.2       1 UNK        -0.5103 
     37 C          27.3685   28.3462    4.4787 C.2       5 UNK         0.5055 
     38 O          27.4049   28.6500    5.6728 O.2       5 UNK        -0.5220 
     39 N          27.4551   29.2494    3.4912 N.am      6 UNK        -0.4450 
     40 CA         27.5662   30.6931    3.6965 C.3       6 UNK         0.0367 
     41 CB         26.1956   31.3068    4.0421 C.3       6 UNK        -0.1929 
     42 C          28.1871   31.3749    2.4746 C.2       6 UNK         0.5070 
     43 O          29.1727   32.0943    2.6329 O.2       6 UNK        -0.5237 
     44 N          27.6077   31.1314    1.2878 N.am      7 UNK        -0.4739 
     45 CA         27.9751   31.7256   -0.0055 C.3       7 UNK         0.0276 
     46 CB         27.0314   31.1742   -1.0904 C.3       7 UNK        -0.1927 
     47 C          29.4503   31.4948   -0.3838 C.2       7 UNK         0.5013 
     48 O          29.7755   30.4504   -0.9484 O.2       7 UNK        -0.5193 
     49 N          30.3107   32.4582   -0.0175 N.am      8 UNK        -0.4253 
     50 CA         31.7773   32.4355   -0.1215 C.3       8 UNK         0.0242 
     51 CB         32.2183   32.5339   -1.5978 C.3       8 UNK        -0.2000 
     52 C          32.4283   31.2493    0.6249 C.2       8 UNK         0.4948 
     53 O          33.4880   30.7727    0.2137 O.2       8 UNK        -0.5275 
     54 N          31.7716   30.7741    1.6915 N.am      9 UNK        -0.4246 
     55 CA         32.1776   29.5979    2.4561 C.3       9 UNK         0.0261 
     56 CB         30.9584   29.0616    3.2226 C.3       9 UNK        -0.1959 
     57 C          33.3230   29.9094    3.4291 C.2       9 UNK         0.5033 
     58 O          33.3846   31.0104    3.9821 O.2       9 UNK        -0.5390 
     59 N          34.1656   28.9014    3.6647 N.am      10 UNK        -0.4215 
     60 CA         35.1924   28.8673    4.6982 C.3       10 UNK         0.0240 
     61 CB         36.5338   29.3669    4.1349 C.3       10 UNK        -0.1982 
     62 C          35.2859   27.4144    5.1705 C.2       10 UNK         0.4970 
     63 O          35.2037   26.5079    4.3374 O.2       10 UNK        -0.4916 
     64 N          35.4248   27.2189    6.4824 N.am      11 UNK        -0.4279 
     65 CA         35.4577   25.9116    7.1471 C.3       11 UNK         0.1003 
     66 C          36.0485   26.0289    8.5778 C.2       11 UNK         0.5709 
     67 N          36.3412   24.9089    9.2249 N.am      11 UNK        -0.7358 
     68 O          36.2498   27.1223    9.1064 O.2       11 UNK        -0.4999 
     69 C69        34.0872   25.1701    7.0995 C.3       12 UNK        -0.0954 
     70 S70        32.7021   26.0688    7.8877 S.3       12 UNK        -0.2268 
     71 C71        31.8074   26.7685    6.4621 C.3       12 UNK         0.0203 
     72 H72        32.5989   29.0059   -3.2952 H         1 UNK         0.0888 
     73 H73        30.9541   28.6657   -2.7686 H         1 UNK         0.0888 
     74 H74        32.1414   29.3091   -1.6252 H         1 UNK         0.0888 
     75 H75        32.0992   25.6342   -0.8727 H         1 UNK         0.3017 
     76 H76        30.7640   28.0884   -0.0972 H         1 UNK         0.0873 
     77 H77        31.4814   26.5338    1.6190 H         1 UNK         0.0745 
     78 H78        29.7487   26.6427    1.6603 H         1 UNK         0.0745 
     79 H79        31.6198   22.8367    2.2405 H         1 UNK         0.0705 
     80 H80        32.5391   24.3173    2.1210 H         1 UNK         0.0705 
     81 H81        32.5534   25.7431    4.0406 H         1 UNK         0.1334 
     82 H82        29.4927   25.4587    7.0288 H         1 UNK         0.1417 
     83 H83        29.2703   23.0404    3.4920 H         1 UNK         0.1562 
     84 H84        27.7447   23.8147    6.8384 H         1 UNK         0.0748 
     85 H85        27.9541   22.5077    5.6998 H         1 UNK         0.0748 
     86 H86        27.0824   26.1360    6.1391 H         1 UNK         0.0940 
     87 H87        25.5373   26.3339    5.3696 H         1 UNK         0.0940 
     88 H88        28.2452   26.5030    3.9450 H         1 UNK         0.0703 
     89 H89        27.1563   26.2695    2.0400 H         1 UNK         0.3081 
     90 H90        23.8735   26.4079    0.9862 H         1 UNK         0.0719 
     91 H91        24.2567   28.8407    0.6342 H         1 UNK         0.0809 
     92 H92        25.9153   28.5314    0.1365 H         1 UNK         0.0809 
     93 H93        24.5744   27.9506   -0.8466 H         1 UNK         0.0809 
     94 H94        26.5554   26.1950   -0.2139 H         1 UNK         0.2990 
     95 H95        27.2562   23.2008    0.2661 H         1 UNK         0.0690 
     96 H96        26.6378   21.8222   -1.7424 H         1 UNK         0.0788 
     97 H97        25.1578   22.7638   -1.9240 H         1 UNK         0.0788 
     98 H98        25.4048   21.7744   -0.4950 H         1 UNK         0.0788 
     99 H99        28.4114   24.4323   -1.1350 H         1 UNK         0.2993 
    100 H100       28.5318   25.4326   -3.9685 H         1 UNK         0.0949 
    101 H101       27.0777   27.9047   -2.8787 H         1 UNK         0.0767 
    102 H102       28.3238   27.9379   -4.1247 H         1 UNK         0.0767 
    103 H103       26.7978   27.1267   -4.4293 H         1 UNK         0.0767 
    104 H104       30.1847   25.9475   -2.5831 H         1 UNK         0.3013 
    105 H105       27.4741   28.9227    2.5359 H         1 UNK         0.3121 
    106 H106       28.2422   30.8732    4.5358 H         1 UNK         0.0774 
    107 H107       25.4487   31.0913    3.2773 H         1 UNK         0.0815 
    108 H108       25.8179   30.9243    4.9904 H         1 UNK         0.0815 
    109 H109       26.2650   32.3912    4.1383 H         1 UNK         0.0815 
    110 H110       26.7856   30.5478    1.2739 H         1 UNK         0.2987 
    111 H111       27.8060   32.8021    0.0653 H         1 UNK         0.0949 
    112 H112       25.9875   31.3908   -0.8631 H         1 UNK         0.0806 
    113 H113       27.2507   31.6236   -2.0599 H         1 UNK         0.0806 
    114 H114       27.1353   30.0944   -1.2067 H         1 UNK         0.0806 
    115 H115       29.9322   33.2375    0.5046 H         1 UNK         0.3010 
    116 H116       32.1327   33.3327    0.3875 H         1 UNK         0.0829 
    117 H117       31.9086   31.6621   -2.1735 H         1 UNK         0.0813 
    118 H118       31.7953   33.4164   -2.0777 H         1 UNK         0.0813 
    119 H119       33.3029   32.6118   -1.6816 H         1 UNK         0.0813 
    120 H120       30.9363   31.2595    2.0029 H         1 UNK         0.3038 
    121 H121       32.5102   28.8321    1.7517 H         1 UNK         0.0769 
    122 H122       30.1291   28.8576    2.5471 H         1 UNK         0.0811 
    123 H123       30.6115   29.7719    3.9744 H         1 UNK         0.0811 
    124 H124       31.1933   28.1314    3.7391 H         1 UNK         0.0811 
    125 H125       34.0394   28.0147    3.1921 H         1 UNK         0.3204 
    126 H126       34.8903   29.4973    5.5382 H         1 UNK         0.0748 
    127 H127       36.8717   28.7560    3.2967 H         1 UNK         0.0771 
    128 H128       36.4569   30.3974    3.7876 H         1 UNK         0.0771 
    129 H129       37.3128   29.3379    4.8978 H         1 UNK         0.0771 
    130 H130       35.5221   28.0036    7.1137 H         1 UNK         0.2980 
    131 H131       36.1788   25.3072    6.5935 H         1 UNK         0.0545 
    132 H132       36.1839   24.0063    8.8047 H         1 UNK         0.3459 
    133 H133       36.7258   24.9681   10.1548 H         1 UNK         0.3459 
    134 H134       34.1680   24.1968    7.5853 H         1 UNK         0.0616 
    135 H135       33.8288   24.9416    6.0666 H         1 UNK         0.0616 
    136 H136       32.4932   27.3507    5.8478 H         1 UNK         0.0634 
    137 H137       31.0652   27.4770    6.8330 H         1 UNK         0.0634 
@<TRIPOS>BOND
     1    1    2 1    
     2    1   72 1    
     3    1   73 1    
     4    1   74 1    
     5    2    3 2    
     6    2    4 am   BACKBONE|DICT|INTERRES
     7    4    5 1    
     8    4   75 1    
     9    5    6 1    
    10    5   35 1    
    11    5   76 1    
    12    6    7 1    
    13    6   77 1    
    14    6   78 1    
    15    7    8 1    
    16    8    9 1    
    17    8   79 1    
    18    8   80 1    
    19    9   10 ar   
    20    9   14 ar   
    21   10   11 ar   
    22   10   81 1    
    23   11   12 ar   
    24   11   71 1    
    25   12   13 ar   
    26   12   82 1    
    27   13   14 ar   
    28   13   15 1    
    29   14   83 1    
    30   15   16 1    
    31   15   84 1    
    32   15   85 1    
    33   16   17 1    
    34   17   18 1    
    35   17   86 1    
    36   17   87 1    
    37   18   19 1    
    38   18   37 1    
    39   18   88 1    
    40   19   20 am   BACKBONE|DICT|INTERRES
    41   19   89 1    
    42   20   21 2    
    43   20   22 1    
    44   22   23 1    
    45   22   24 1    
    46   22   90 1    
    47   23   91 1    
    48   23   92 1    
    49   23   93 1    
    50   24   25 am   BACKBONE|DICT|INTERRES
    51   24   94 1    
    52   25   26 2    
    53   25   27 1    
    54   27   28 1    
    55   27   29 1    
    56   27   95 1    
    57   28   96 1    
    58   28   97 1    
    59   28   98 1    
    60   29   30 am   BACKBONE|DICT|INTERRES
    61   29   99 1    
    62   30   31 2    
    63   30   32 1    
    64   32   33 1    
    65   32   34 1    
    66   32  100 1    
    67   33  101 1    
    68   33  102 1    
    69   33  103 1    
    70   34   35 am   BACKBONE|DICT|INTERRES
    71   34  104 1    
    72   35   36 2    
    73   37   38 2    
    74   37   39 am   BACKBONE|DICT|INTERRES
    75   39   40 1    
    76   39  105 1    
    77   40   41 1    
    78   40   42 1    
    79   40  106 1    
    80   41  107 1    
    81   41  108 1    
    82   41  109 1    
    83   42   43 2    
    84   42   44 am   BACKBONE|DICT|INTERRES
    85   44   45 1    
    86   44  110 1    
    87   45   46 1    
    88   45   47 1    
    89   45  111 1    
    90   46  112 1    
    91   46  113 1    
    92   46  114 1    
    93   47   48 2    
    94   47   49 am   BACKBONE|DICT|INTERRES
    95   49   50 1    
    96   49  115 1    
    97   50   51 1    
    98   50   52 1    
    99   50  116 1    
   100   51  117 1    
   101   51  118 1    
   102   51  119 1    
   103   52   53 2    
   104   52   54 am   BACKBONE|DICT|INTERRES
   105   54   55 1    
   106   54  120 1    
   107   55   56 1    
   108   55   57 1    
   109   55  121 1    
   110   56  122 1    
   111   56  123 1    
   112   56  124 1    
   113   57   58 2    
   114   57   59 am   BACKBONE|DICT|INTERRES
   115   59   60 1    
   116   59  125 1    
   117   60   61 1    
   118   60   62 1    
   119   60  126 1    
   120   61  127 1    
   121   61  128 1    
   122   61  129 1    
   123   62   63 2    
   124   62   64 am   BACKBONE|DICT|INTERRES
   125   64   65 1    
   126   64  130 1    
   127   65   66 1    
   128   65   69 1    
   129   65  131 1    
   130   66   67 am   BACKBONE|DICT|INTERRES
   131   66   68 2    
   132   67  132 1    
   133   67  133 1    
   134   69   70 1    
   135   69  134 1    
   136   69  135 1    
   137   70   71 1    
   138   71  136 1    
   139   71  137 1    
@<TRIPOS>SUBSTRUCTURE
     1 UNK         1 GROUP             0       ****    0 ROOT    
