@<TRIPOS>MOLECULE
3R136
137   139    1
SMALL
USER_CHARGES


@<TRIPOS>ATOM
      1 CA         25.3504   20.4371    2.5097 C.3       0 UNK        -0.1979 
      2 C          26.2049   21.3940    1.6937 C.2       0 UNK         0.4864 
      3 O          25.6659   22.2743    1.0219 O.2       0 UNK        -0.5359 
      4 N          27.5365   21.2496    1.7570 N.am      1 UNK        -0.4318 
      5 CA         28.5060   22.0667    1.0131 C.3       1 UNK         0.0824 
      6 C6         29.9543   21.5440    1.1942 C.3       12 UNK        -0.0944 
      7 S7         30.9455   21.7352   -0.3222 S.3       12 UNK        -0.2672 
      8 C8         32.5428   22.2985    0.3443 C.3       12 UNK         0.0333 
      9 C9         32.5476   23.7870    0.6635 C.ar      12 UNK        -0.0807 
     10 C10        32.6807   24.2344    1.9820 C.ar      12 UNK        -0.0894 
     11 C11        32.7575   25.6032    2.2600 C.ar      12 UNK        -0.0804 
     12 C12        32.6880   26.5257    1.2110 C.ar      12 UNK        -0.0824 
     13 C13        32.5255   26.0907   -0.1076 C.ar      12 UNK        -0.0762 
     14 C14        32.4657   24.7199   -0.3743 C.ar      12 UNK        -0.0782 
     15 C15        32.4144   27.0948   -1.2489 C.3       12 UNK         0.0230 
     16 S16        30.9856   28.2125   -1.0652 S.3       12 UNK        -0.2608 
     17 C17        29.6105   27.0420   -0.7825 C.3       12 UNK        -0.0989 
     18 CA         28.2846   27.4009   -1.5033 C.3       5 UNK         0.0716 
     19 N          27.3807   26.2519   -1.4573 N.am      5 UNK        -0.4135 
     20 C          26.3090   26.0625   -2.2351 C.2       4 UNK         0.5031 
     21 O          26.0072   26.7894   -3.1832 O.2       4 UNK        -0.5229 
     22 CA         25.4196   24.8557   -1.8856 C.3       4 UNK         0.0329 
     23 CB         26.0571   23.5447   -2.3748 C.3       4 UNK        -0.2001 
     24 N          25.1521   24.7600   -0.4482 N.am      4 UNK        -0.4303 
     25 C          24.3854   25.6147    0.2466 C.2       3 UNK         0.5044 
     26 O          23.7349   26.5254   -0.2673 O.2       3 UNK        -0.5152 
     27 CA         24.3305   25.4238    1.7713 C.3       3 UNK         0.0319 
     28 CB         23.2450   24.4057    2.1591 C.3       3 UNK        -0.2001 
     29 N          25.6283   24.9931    2.2981 N.am      3 UNK        -0.4354 
     30 C          26.5789   25.8341    2.7344 C.2       2 UNK         0.4964 
     31 O          26.4048   27.0454    2.8572 O.2       2 UNK        -0.5047 
     32 CA         27.9513   25.2463    3.1243 C.3       2 UNK         0.0288 
     33 CB         28.1216   25.2474    4.6526 C.3       2 UNK        -0.2113 
     34 N          28.1911   23.8905    2.6239 N.am      2 UNK        -0.4145 
     35 C          28.3882   23.5713    1.3367 C.2       1 UNK         0.5006 
     36 O          28.3905   24.3948    0.4227 O.2       1 UNK        -0.5103 
     37 C          27.6151   28.6440   -0.8750 C.2       5 UNK         0.5055 
     38 O          26.6584   28.5209   -0.1079 O.2       5 UNK        -0.5220 
     39 N          28.1823   29.8248   -1.1579 N.am      6 UNK        -0.4450 
     40 CA         27.8986   31.0747   -0.4425 C.3       6 UNK         0.0367 
     41 CB         28.4828   32.2533   -1.2381 C.3       6 UNK        -0.1929 
     42 C          28.4456   31.0791    1.0013 C.2       6 UNK         0.5070 
     43 O          28.0130   31.9069    1.8044 O.2       6 UNK        -0.5237 
     44 N          29.3867   30.1681    1.2963 N.am      7 UNK        -0.4739 
     45 CA         30.0522   29.8857    2.5735 C.3       7 UNK         0.0276 
     46 CB         29.0435   29.5095    3.6765 C.3       7 UNK        -0.1927 
     47 C          31.0110   30.9875    3.0429 C.2       7 UNK         0.5013 
     48 O          32.1783   30.6920    3.3037 O.2       7 UNK        -0.5193 
     49 N          30.5066   32.2262    3.1351 N.am      8 UNK        -0.4253 
     50 CA         31.1987   33.4408    3.5792 C.3       8 UNK         0.0242 
     51 CB         32.1248   33.9523    2.4514 C.3       8 UNK        -0.2000 
     52 C          31.9025   33.2322    4.9377 C.2       8 UNK         0.4948 
     53 O          31.2702   32.7337    5.8714 O.2       8 UNK        -0.5275 
     54 N          33.1908   33.5856    5.0191 N.am      9 UNK        -0.4246 
     55 CA         34.0618   33.2916    6.1585 C.3       9 UNK         0.0261 
     56 CB         35.0629   34.4474    6.3268 C.3       9 UNK        -0.1959 
     57 C          34.8119   31.9544    6.0020 C.2       9 UNK         0.5033 
     58 O          35.4087   31.4955    6.9771 O.2       9 UNK        -0.5390 
     59 N          34.7976   31.3544    4.8001 N.am      10 UNK        -0.4215 
     60 CA         35.5741   30.1587    4.4512 C.3       10 UNK         0.0240 
     61 CB         35.5036   29.9100    2.9351 C.3       10 UNK        -0.1982 
     62 C          35.1514   28.9014    5.2258 C.2       10 UNK         0.4970 
     63 O          36.0125   28.0882    5.5633 O.2       10 UNK        -0.4916 
     64 N          33.8493   28.7750    5.5096 N.am      11 UNK        -0.4279 
     65 CA         33.2911   27.7123    6.3611 C.3       11 UNK         0.1003 
     66 C          33.4819   27.9597    7.8892 C.2       11 UNK         0.5709 
     67 N          34.0726   29.0650    8.3319 N.am      11 UNK        -0.7358 
     68 O          33.0963   27.1184    8.6975 O.2       11 UNK        -0.4999 
     69 C69        31.8057   27.4147    6.0158 C.3       12 UNK        -0.0954 
     70 S70        31.4303   26.9043    4.2983 S.3       12 UNK        -0.2268 
     71 C71        32.9405   26.0933    3.6874 C.3       12 UNK         0.0203 
     72 H72        24.6848   19.8786    1.8522 H         1 UNK         0.0888 
     73 H73        24.7394   20.9938    3.2197 H         1 UNK         0.0888 
     74 H74        25.9558   19.7229    3.0674 H         1 UNK         0.0888 
     75 H75        27.9245   20.5111    2.3270 H         1 UNK         0.3017 
     76 H76        28.2274   21.9538   -0.0373 H         1 UNK         0.0873 
     77 H77        30.4522   22.0171    2.0433 H         1 UNK         0.0745 
     78 H78        29.9497   20.4757    1.4166 H         1 UNK         0.0745 
     79 H79        32.8038   21.7042    1.2214 H         1 UNK         0.0705 
     80 H80        33.3174   22.0979   -0.3972 H         1 UNK         0.0705 
     81 H81        32.7461   23.5179    2.7893 H         1 UNK         0.1334 
     82 H82        32.7434   27.5849    1.4238 H         1 UNK         0.1417 
     83 H83        32.3549   24.3717   -1.3925 H         1 UNK         0.1562 
     84 H84        32.3358   26.5845   -2.2101 H         1 UNK         0.0748 
     85 H85        33.3271   27.6906   -1.2911 H         1 UNK         0.0748 
     86 H86        29.4566   26.9377    0.2940 H         1 UNK         0.0940 
     87 H87        29.9366   26.0585   -1.1251 H         1 UNK         0.0940 
     88 H88        28.4989   27.6172   -2.5521 H         1 UNK         0.0703 
     89 H89        27.5637   25.5842   -0.7113 H         1 UNK         0.3081 
     90 H90        24.4646   24.9828   -2.3999 H         1 UNK         0.0719 
     91 H91        27.0119   23.3502   -1.8847 H         1 UNK         0.0809 
     92 H92        25.4051   22.6922   -2.1832 H         1 UNK         0.0809 
     93 H93        26.2418   23.5780   -3.4494 H         1 UNK         0.0809 
     94 H94        25.5748   23.9804    0.0468 H         1 UNK         0.2990 
     95 H95        24.0542   26.3827    2.2152 H         1 UNK         0.0690 
     96 H96        23.1898   24.2783    3.2403 H         1 UNK         0.0788 
     97 H97        23.4216   23.4263    1.7146 H         1 UNK         0.0788 
     98 H98        22.2632   24.7408    1.8219 H         1 UNK         0.0788 
     99 H99        25.8469   24.0098    2.1956 H         1 UNK         0.2993 
    100 H100       28.7143   25.9006    2.6954 H         1 UNK         0.0949 
    101 H101       28.0181   26.2564    5.0548 H         1 UNK         0.0767 
    102 H102       27.3762   24.6206    5.1436 H         1 UNK         0.0767 
    103 H103       29.1093   24.8881    4.9426 H         1 UNK         0.0767 
    104 H104       28.1752   23.1461    3.3058 H         1 UNK         0.3013 
    105 H105       28.9705   29.8368   -1.7911 H         1 UNK         0.3121 
    106 H106       26.8153   31.2003   -0.3833 H         1 UNK         0.0774 
    107 H107       28.0609   32.3035   -2.2420 H         1 UNK         0.0815 
    108 H108       29.5673   32.1813   -1.3305 H         1 UNK         0.0815 
    109 H109       28.2607   33.2023   -0.7477 H         1 UNK         0.0815 
    110 H110       29.6978   29.5844    0.5312 H         1 UNK         0.2987 
    111 H111       30.6694   29.0062    2.3849 H         1 UNK         0.0949 
    112 H112       29.5551   29.2827    4.6121 H         1 UNK         0.0806 
    113 H113       28.3367   30.3120    3.8865 H         1 UNK         0.0806 
    114 H114       28.4733   28.6243    3.3985 H         1 UNK         0.0806 
    115 H115       29.5286   32.3321    2.8758 H         1 UNK         0.3010 
    116 H116       30.4276   34.1939    3.7479 H         1 UNK         0.0829 
    117 H117       31.5636   34.1021    1.5288 H         1 UNK         0.0813 
    118 H118       32.5717   34.9147    2.7044 H         1 UNK         0.0813 
    119 H119       32.9301   33.2506    2.2300 H         1 UNK         0.0813 
    120 H120       33.6250   34.0106    4.2119 H         1 UNK         0.3038 
    121 H121       33.4667   33.2255    7.0719 H         1 UNK         0.0769 
    122 H122       35.7066   34.5574    5.4532 H         1 UNK         0.0811 
    123 H123       35.7103   34.2813    7.1891 H         1 UNK         0.0811 
    124 H124       34.5499   35.3957    6.4882 H         1 UNK         0.0811 
    125 H125       34.1943   31.7249    4.0787 H         1 UNK         0.3204 
    126 H126       36.6154   30.3628    4.7095 H         1 UNK         0.0748 
    127 H127       35.8488   30.7774    2.3722 H         1 UNK         0.0771 
    128 H128       36.1359   29.0678    2.6505 H         1 UNK         0.0771 
    129 H129       34.4905   29.6767    2.6065 H         1 UNK         0.0771 
    130 H130       33.2032   29.4732    5.1665 H         1 UNK         0.2980 
    131 H131       33.8544   26.7985    6.1683 H         1 UNK         0.0545 
    132 H132       34.1854   29.1910    9.3251 H         1 UNK         0.3459 
    133 H133       34.4387   29.7621    7.6958 H         1 UNK         0.3459 
    134 H134       31.4262   26.6174    6.6574 H         1 UNK         0.0616 
    135 H135       31.1933   28.2898    6.2388 H         1 UNK         0.0616 
    136 H136       33.7779   26.7892    3.7023 H         1 UNK         0.0634 
    137 H137       33.1999   25.2677    4.3516 H         1 UNK         0.0634 
@<TRIPOS>BOND
     1    1    2 1    
     2    1   72 1    
     3    1   73 1    
     4    1   74 1    
     5    2    3 2    
     6    2    4 am   BACKBONE|DICT|INTERRES
     7    4    5 1    
     8    4   75 1    
     9    5    6 1    
    10    5   35 1    
    11    5   76 1    
    12    6    7 1    
    13    6   77 1    
    14    6   78 1    
    15    7    8 1    
    16    8    9 1    
    17    8   79 1    
    18    8   80 1    
    19    9   10 ar   
    20    9   14 ar   
    21   10   11 ar   
    22   10   81 1    
    23   11   12 ar   
    24   11   71 1    
    25   12   13 ar   
    26   12   82 1    
    27   13   14 ar   
    28   13   15 1    
    29   14   83 1    
    30   15   16 1    
    31   15   84 1    
    32   15   85 1    
    33   16   17 1    
    34   17   18 1    
    35   17   86 1    
    36   17   87 1    
    37   18   19 1    
    38   18   37 1    
    39   18   88 1    
    40   19   20 am   BACKBONE|DICT|INTERRES
    41   19   89 1    
    42   20   21 2    
    43   20   22 1    
    44   22   23 1    
    45   22   24 1    
    46   22   90 1    
    47   23   91 1    
    48   23   92 1    
    49   23   93 1    
    50   24   25 am   BACKBONE|DICT|INTERRES
    51   24   94 1    
    52   25   26 2    
    53   25   27 1    
    54   27   28 1    
    55   27   29 1    
    56   27   95 1    
    57   28   96 1    
    58   28   97 1    
    59   28   98 1    
    60   29   30 am   BACKBONE|DICT|INTERRES
    61   29   99 1    
    62   30   31 2    
    63   30   32 1    
    64   32   33 1    
    65   32   34 1    
    66   32  100 1    
    67   33  101 1    
    68   33  102 1    
    69   33  103 1    
    70   34   35 am   BACKBONE|DICT|INTERRES
    71   34  104 1    
    72   35   36 2    
    73   37   38 2    
    74   37   39 am   BACKBONE|DICT|INTERRES
    75   39   40 1    
    76   39  105 1    
    77   40   41 1    
    78   40   42 1    
    79   40  106 1    
    80   41  107 1    
    81   41  108 1    
    82   41  109 1    
    83   42   43 2    
    84   42   44 am   BACKBONE|DICT|INTERRES
    85   44   45 1    
    86   44  110 1    
    87   45   46 1    
    88   45   47 1    
    89   45  111 1    
    90   46  112 1    
    91   46  113 1    
    92   46  114 1    
    93   47   48 2    
    94   47   49 am   BACKBONE|DICT|INTERRES
    95   49   50 1    
    96   49  115 1    
    97   50   51 1    
    98   50   52 1    
    99   50  116 1    
   100   51  117 1    
   101   51  118 1    
   102   51  119 1    
   103   52   53 2    
   104   52   54 am   BACKBONE|DICT|INTERRES
   105   54   55 1    
   106   54  120 1    
   107   55   56 1    
   108   55   57 1    
   109   55  121 1    
   110   56  122 1    
   111   56  123 1    
   112   56  124 1    
   113   57   58 2    
   114   57   59 am   BACKBONE|DICT|INTERRES
   115   59   60 1    
   116   59  125 1    
   117   60   61 1    
   118   60   62 1    
   119   60  126 1    
   120   61  127 1    
   121   61  128 1    
   122   61  129 1    
   123   62   63 2    
   124   62   64 am   BACKBONE|DICT|INTERRES
   125   64   65 1    
   126   64  130 1    
   127   65   66 1    
   128   65   69 1    
   129   65  131 1    
   130   66   67 am   BACKBONE|DICT|INTERRES
   131   66   68 2    
   132   67  132 1    
   133   67  133 1    
   134   69   70 1    
   135   69  134 1    
   136   69  135 1    
   137   70   71 1    
   138   71  136 1    
   139   71  137 1    
@<TRIPOS>SUBSTRUCTURE
     1 UNK         1 GROUP             0       ****    0 ROOT    
