@<TRIPOS>MOLECULE
3R136
137   139    1
SMALL
USER_CHARGES


@<TRIPOS>ATOM
      1 CA         31.8353   19.7795   -1.3716 C.3       0 UNK        -0.1979 
      2 C          31.0781   20.8043   -2.2037 C.2       0 UNK         0.4864 
      3 O          30.8538   20.5802   -3.3946 O.2       0 UNK        -0.5359 
      4 N          30.6907   21.9277   -1.5873 N.am      1 UNK        -0.4318 
      5 CA         29.8810   22.9836   -2.2011 C.3       1 UNK         0.0824 
      6 C6         30.1343   24.3560   -1.5197 C.3       12 UNK        -0.0944 
      7 S7         29.5558   24.4749    0.2094 S.3       12 UNK        -0.2672 
      8 C8         31.1161   24.3496    1.1441 C.3       12 UNK         0.0333 
      9 C9         30.9355   24.4717    2.6565 C.ar      12 UNK        -0.0807 
     10 C10        31.9289   25.0974    3.4157 C.ar      12 UNK        -0.0894 
     11 C11        31.8098   25.2065    4.8050 C.ar      12 UNK        -0.0804 
     12 C12        30.6749   24.6905    5.4388 C.ar      12 UNK        -0.0824 
     13 C13        29.6670   24.0721    4.6943 C.ar      12 UNK        -0.0762 
     14 C14        29.8139   23.9460    3.3096 C.ar      12 UNK        -0.0782 
     15 C15        28.4155   23.5445    5.3812 C.3       12 UNK         0.0230 
     16 S16        26.9074   24.3735    4.7808 S.3       12 UNK        -0.2608 
     17 C17        27.1347   26.0862    5.3804 C.3       12 UNK        -0.0989 
     18 CA         27.8048   27.0282    4.3448 C.3       5 UNK         0.0716 
     19 N          27.1711   26.9562    3.0294 N.am      5 UNK        -0.4135 
     20 C          27.6885   27.4563    1.9028 C.2       4 UNK         0.5031 
     21 O          28.7734   28.0365    1.8572 O.2       4 UNK        -0.5229 
     22 CA         26.8611   27.2545    0.6179 C.3       4 UNK         0.0329 
     23 CB         27.5938   27.7450   -0.6453 C.3       4 UNK        -0.2001 
     24 N          26.4937   25.8495    0.4297 N.am      4 UNK        -0.4303 
     25 C          25.4656   25.2223    1.0152 C.2       3 UNK         0.5044 
     26 O          24.7040   25.7796    1.8082 O.2       3 UNK        -0.5152 
     27 CA         25.2807   23.7244    0.6910 C.3       3 UNK         0.0319 
     28 CB         23.8245   23.2523    0.8860 C.3       3 UNK        -0.2001 
     29 N          25.7801   23.3287   -0.6341 N.am      3 UNK        -0.4354 
     30 C          25.3900   23.7848   -1.8344 C.2       2 UNK         0.4964 
     31 O          24.5196   24.6426   -1.9911 O.2       2 UNK        -0.5047 
     32 CA         26.1184   23.1923   -3.0619 C.3       2 UNK         0.0288 
     33 CB         25.6366   23.8052   -4.3911 C.3       2 UNK        -0.2113 
     34 N          27.5761   23.3428   -2.9755 N.am      2 UNK        -0.4145 
     35 C          28.3855   22.5945   -2.2133 C.2       1 UNK         0.5006 
     36 O          27.9744   21.6716   -1.5018 O.2       1 UNK        -0.5103 
     37 C          27.8016   28.4854    4.8443 C.2       5 UNK         0.5055 
     38 O          26.7460   29.1238    4.8259 O.2       5 UNK        -0.5220 
     39 N          28.9702   28.9734    5.2799 N.am      6 UNK        -0.4450 
     40 CA         29.2419   30.3352    5.7568 C.3       6 UNK         0.0367 
     41 CB         28.3788   30.6985    6.9843 C.3       6 UNK        -0.1929 
     42 C          29.1994   31.4132    4.6527 C.2       6 UNK         0.5070 
     43 O          29.1105   32.6007    4.9727 O.2       6 UNK        -0.5237 
     44 N          29.2799   31.0120    3.3758 N.am      7 UNK        -0.4739 
     45 CA         29.2892   31.9143    2.2243 C.3       7 UNK         0.0276 
     46 CB         28.7345   31.1807    0.9908 C.3       7 UNK        -0.1927 
     47 C          30.6993   32.4789    1.9832 C.2       7 UNK         0.5013 
     48 O          31.4180   31.9889    1.1082 O.2       7 UNK        -0.5193 
     49 N          31.0641   33.5009    2.7714 N.am      8 UNK        -0.4253 
     50 CA         32.2988   34.2927    2.6943 C.3       8 UNK         0.0242 
     51 CB         32.2791   35.2016    1.4443 C.3       8 UNK        -0.2000 
     52 C          33.5595   33.4159    2.7990 C.2       8 UNK         0.4948 
     53 O          33.9195   33.0168    3.9061 O.2       8 UNK        -0.5275 
     54 N          34.1888   33.1045    1.6569 N.am      9 UNK        -0.4246 
     55 CA         35.3376   32.2009    1.5488 C.3       9 UNK         0.0261 
     56 CB         35.8500   32.1976    0.0998 C.3       9 UNK        -0.1959 
     57 C          35.0370   30.7655    2.0189 C.2       9 UNK         0.5033 
     58 O          35.9374   30.1029    2.5379 O.2       9 UNK        -0.5390 
     59 N          33.7810   30.3187    1.8772 N.am      10 UNK        -0.4215 
     60 CA         33.2902   29.0468    2.4051 C.3       10 UNK         0.0240 
     61 CB         32.1046   28.5688    1.5467 C.3       10 UNK        -0.1982 
     62 C          32.9274   29.1923    3.8942 C.2       10 UNK         0.4970 
     63 O          31.7488   29.1276    4.2373 O.2       10 UNK        -0.4916 
     64 N          33.9553   29.3965    4.7315 N.am      11 UNK        -0.4279 
     65 CA         33.9238   29.5146    6.2035 C.3       11 UNK         0.1003 
     66 C          32.9757   30.6010    6.7988 C.2       11 UNK         0.5709 
     67 N          32.7179   31.7023    6.1068 N.am      11 UNK        -0.7358 
     68 O          32.4883   30.4717    7.9195 O.2       11 UNK        -0.4999 
     69 C69        33.8687   28.1387    6.9375 C.3       12 UNK        -0.0954 
     70 S70        32.3305   27.1807    6.7059 S.3       12 UNK        -0.2268 
     71 C71        32.9279   25.8534    5.6117 C.3       12 UNK         0.0203 
     72 H72        31.2881   18.8375   -1.3490 H         1 UNK         0.0888 
     73 H73        32.8169   19.5939   -1.8067 H         1 UNK         0.0888 
     74 H74        31.9777   20.1134   -0.3440 H         1 UNK         0.0888 
     75 H75        30.8513   22.0311   -0.5966 H         1 UNK         0.3017 
     76 H76        30.1903   23.0782   -3.2446 H         1 UNK         0.0873 
     77 H77        31.1978   24.5964   -1.5621 H         1 UNK         0.0745 
     78 H78        29.6435   25.1499   -2.0851 H         1 UNK         0.0745 
     79 H79        31.5950   23.3950    0.9255 H         1 UNK         0.0705 
     80 H80        31.7898   25.1301    0.7866 H         1 UNK         0.0705 
     81 H81        32.8068   25.4916    2.9222 H         1 UNK         0.1334 
     82 H82        30.5772   24.7773    6.5124 H         1 UNK         0.1417 
     83 H83        29.0368   23.4528    2.7423 H         1 UNK         0.1562 
     84 H84        28.4812   23.6564    6.4646 H         1 UNK         0.0748 
     85 H85        28.3300   22.4744    5.1875 H         1 UNK         0.0748 
     86 H86        27.7127   26.0688    6.3063 H         1 UNK         0.0940 
     87 H87        26.1465   26.4635    5.6521 H         1 UNK         0.0940 
     88 H88        28.8421   26.7118    4.2175 H         1 UNK         0.0703 
     89 H89        26.2647   26.5060    2.9835 H         1 UNK         0.3081 
     90 H90        25.9503   27.8474    0.7245 H         1 UNK         0.0719 
     91 H91        28.5465   27.2327   -0.7842 H         1 UNK         0.0809 
     92 H92        26.9924   27.5874   -1.5407 H         1 UNK         0.0809 
     93 H93        27.8057   28.8125   -0.5835 H         1 UNK         0.0809 
     94 H94        27.1182   25.3003   -0.1436 H         1 UNK         0.2990 
     95 H95        25.8980   23.1898    1.4148 H         1 UNK         0.0690 
     96 H96        23.7211   22.1874    0.6779 H         1 UNK         0.0788 
     97 H97        23.1350   23.7907    0.2350 H         1 UNK         0.0788 
     98 H98        23.4941   23.4126    1.9131 H         1 UNK         0.0788 
     99 H99        26.5228   22.6337   -0.6368 H         1 UNK         0.2993 
    100 H100       25.8787   22.1267   -3.0857 H         1 UNK         0.0949 
    101 H101       24.5615   23.6692   -4.5181 H         1 UNK         0.0767 
    102 H102       25.8385   24.8761   -4.4394 H         1 UNK         0.0767 
    103 H103       26.1222   23.3325   -5.2452 H         1 UNK         0.0767 
    104 H104       27.9757   24.1023   -3.5079 H         1 UNK         0.3013 
    105 H105       29.8039   28.4057    5.1717 H         1 UNK         0.3121 
    106 H106       30.2732   30.3111    6.0998 H         1 UNK         0.0774 
    107 H107       27.3320   30.8458    6.7185 H         1 UNK         0.0815 
    108 H108       28.7274   31.6246    7.4427 H         1 UNK         0.0815 
    109 H109       28.4290   29.9232    7.7487 H         1 UNK         0.0815 
    110 H110       29.4071   30.0254    3.1837 H         1 UNK         0.2987 
    111 H111       28.6209   32.7553    2.4234 H         1 UNK         0.0949 
    112 H112       28.6769   31.8523    0.1335 H         1 UNK         0.0806 
    113 H113       29.3631   30.3398    0.6988 H         1 UNK         0.0806 
    114 H114       27.7300   30.7994    1.1744 H         1 UNK         0.0806 
    115 H115       30.4321   33.7437    3.5256 H         1 UNK         0.3010 
    116 H116       32.3070   34.9418    3.5715 H         1 UNK         0.0829 
    117 H117       32.1712   34.6370    0.5175 H         1 UNK         0.0813 
    118 H118       31.4504   35.9082    1.4920 H         1 UNK         0.0813 
    119 H119       33.1946   35.7905    1.3707 H         1 UNK         0.0813 
    120 H120       33.7952   33.4470    0.7922 H         1 UNK         0.3038 
    121 H121       36.1276   32.5951    2.1915 H         1 UNK         0.0769 
    122 H122       36.7217   31.5497   -0.0038 H         1 UNK         0.0811 
    123 H123       35.0914   31.8368   -0.5962 H         1 UNK         0.0811 
    124 H124       36.1515   33.1959   -0.2178 H         1 UNK         0.0811 
    125 H125       33.0780   30.9470    1.4953 H         1 UNK         0.3204 
    126 H126       34.0750   28.2911    2.3288 H         1 UNK         0.0748 
    127 H127       31.7052   27.6235    1.9155 H         1 UNK         0.0771 
    128 H128       32.3985   28.4155    0.5085 H         1 UNK         0.0771 
    129 H129       31.2847   29.2860    1.5599 H         1 UNK         0.0771 
    130 H130       34.8702   29.5008    4.3089 H         1 UNK         0.2980 
    131 H131       34.9095   29.9159    6.4405 H         1 UNK         0.0545 
    132 H132       33.1764   31.8994    5.2220 H         1 UNK         0.3459 
    133 H133       32.1181   32.3991    6.5159 H         1 UNK         0.3459 
    134 H134       34.7203   27.5316    6.6282 H         1 UNK         0.0616 
    135 H135       34.0069   28.2825    8.0103 H         1 UNK         0.0616 
    136 H136       33.6821   26.2630    4.9380 H         1 UNK         0.0634 
    137 H137       33.4271   25.0924    6.2126 H         1 UNK         0.0634 
@<TRIPOS>BOND
     1    1    2 1    
     2    1   72 1    
     3    1   73 1    
     4    1   74 1    
     5    2    3 2    
     6    2    4 am   BACKBONE|DICT|INTERRES
     7    4    5 1    
     8    4   75 1    
     9    5    6 1    
    10    5   35 1    
    11    5   76 1    
    12    6    7 1    
    13    6   77 1    
    14    6   78 1    
    15    7    8 1    
    16    8    9 1    
    17    8   79 1    
    18    8   80 1    
    19    9   10 ar   
    20    9   14 ar   
    21   10   11 ar   
    22   10   81 1    
    23   11   12 ar   
    24   11   71 1    
    25   12   13 ar   
    26   12   82 1    
    27   13   14 ar   
    28   13   15 1    
    29   14   83 1    
    30   15   16 1    
    31   15   84 1    
    32   15   85 1    
    33   16   17 1    
    34   17   18 1    
    35   17   86 1    
    36   17   87 1    
    37   18   19 1    
    38   18   37 1    
    39   18   88 1    
    40   19   20 am   BACKBONE|DICT|INTERRES
    41   19   89 1    
    42   20   21 2    
    43   20   22 1    
    44   22   23 1    
    45   22   24 1    
    46   22   90 1    
    47   23   91 1    
    48   23   92 1    
    49   23   93 1    
    50   24   25 am   BACKBONE|DICT|INTERRES
    51   24   94 1    
    52   25   26 2    
    53   25   27 1    
    54   27   28 1    
    55   27   29 1    
    56   27   95 1    
    57   28   96 1    
    58   28   97 1    
    59   28   98 1    
    60   29   30 am   BACKBONE|DICT|INTERRES
    61   29   99 1    
    62   30   31 2    
    63   30   32 1    
    64   32   33 1    
    65   32   34 1    
    66   32  100 1    
    67   33  101 1    
    68   33  102 1    
    69   33  103 1    
    70   34   35 am   BACKBONE|DICT|INTERRES
    71   34  104 1    
    72   35   36 2    
    73   37   38 2    
    74   37   39 am   BACKBONE|DICT|INTERRES
    75   39   40 1    
    76   39  105 1    
    77   40   41 1    
    78   40   42 1    
    79   40  106 1    
    80   41  107 1    
    81   41  108 1    
    82   41  109 1    
    83   42   43 2    
    84   42   44 am   BACKBONE|DICT|INTERRES
    85   44   45 1    
    86   44  110 1    
    87   45   46 1    
    88   45   47 1    
    89   45  111 1    
    90   46  112 1    
    91   46  113 1    
    92   46  114 1    
    93   47   48 2    
    94   47   49 am   BACKBONE|DICT|INTERRES
    95   49   50 1    
    96   49  115 1    
    97   50   51 1    
    98   50   52 1    
    99   50  116 1    
   100   51  117 1    
   101   51  118 1    
   102   51  119 1    
   103   52   53 2    
   104   52   54 am   BACKBONE|DICT|INTERRES
   105   54   55 1    
   106   54  120 1    
   107   55   56 1    
   108   55   57 1    
   109   55  121 1    
   110   56  122 1    
   111   56  123 1    
   112   56  124 1    
   113   57   58 2    
   114   57   59 am   BACKBONE|DICT|INTERRES
   115   59   60 1    
   116   59  125 1    
   117   60   61 1    
   118   60   62 1    
   119   60  126 1    
   120   61  127 1    
   121   61  128 1    
   122   61  129 1    
   123   62   63 2    
   124   62   64 am   BACKBONE|DICT|INTERRES
   125   64   65 1    
   126   64  130 1    
   127   65   66 1    
   128   65   69 1    
   129   65  131 1    
   130   66   67 am   BACKBONE|DICT|INTERRES
   131   66   68 2    
   132   67  132 1    
   133   67  133 1    
   134   69   70 1    
   135   69  134 1    
   136   69  135 1    
   137   70   71 1    
   138   71  136 1    
   139   71  137 1    
@<TRIPOS>SUBSTRUCTURE
     1 UNK         1 GROUP             0       ****    0 ROOT    
