@<TRIPOS>MOLECULE
3R136
137   139    1
SMALL
USER_CHARGES


@<TRIPOS>ATOM
      1 CA         27.9881   21.7183    5.5030 C.3       0 UNK        -0.1979 
      2 C          28.2596   22.7358    4.4047 C.2       0 UNK         0.4864 
      3 O          28.8712   23.7693    4.6737 O.2       0 UNK        -0.5359 
      4 N          27.7972   22.4492    3.1778 N.am      1 UNK        -0.4318 
      5 CA         27.9757   23.2582    1.9591 C.3       1 UNK         0.0824 
      6 C6         29.4556   23.3596    1.4941 C.3       12 UNK        -0.0944 
      7 S7         30.2004   21.7151    1.2133 S.3       12 UNK        -0.2672 
      8 C8         31.2942   22.0287   -0.2155 C.3       12 UNK         0.0333 
      9 C9         32.3465   23.1059    0.0392 C.ar      12 UNK        -0.0807 
     10 C10        33.0271   23.1792    1.2603 C.ar      12 UNK        -0.0894 
     11 C11        33.9570   24.1940    1.4990 C.ar      12 UNK        -0.0804 
     12 C12        34.2350   25.1231    0.4935 C.ar      12 UNK        -0.0824 
     13 C13        33.5819   25.0483   -0.7407 C.ar      12 UNK        -0.0762 
     14 C14        32.6419   24.0367   -0.9626 C.ar      12 UNK        -0.0782 
     15 C15        33.8775   26.0783   -1.8236 C.3       12 UNK         0.0230 
     16 S16        32.4455   27.1488   -2.1814 S.3       12 UNK        -0.2608 
     17 C17        32.0826   27.8586   -0.5368 C.3       12 UNK        -0.0989 
     18 CA         30.6643   28.4712   -0.4413 C.3       5 UNK         0.0716 
     19 N          29.6323   27.5583   -0.9452 N.am      5 UNK        -0.4135 
     20 C          28.3155   27.7914   -1.0196 C.2       4 UNK         0.5031 
     21 O          27.7602   28.7631   -0.5028 O.2       4 UNK        -0.5229 
     22 CA         27.4799   26.7934   -1.8397 C.3       4 UNK         0.0329 
     23 CB         28.2419   25.5213   -2.2728 C.3       4 UNK        -0.2001 
     24 N          26.3043   26.4027   -1.0701 N.am      4 UNK        -0.4303 
     25 C          25.0370   26.4388   -1.5038 C.2       3 UNK         0.5044 
     26 O          24.7103   26.8415   -2.6215 O.2       3 UNK        -0.5152 
     27 CA         23.9380   25.9072   -0.5596 C.3       3 UNK         0.0319 
     28 CB         23.2588   24.6663   -1.1647 C.3       3 UNK        -0.2001 
     29 N          24.4396   25.5602    0.7718 N.am      3 UNK        -0.4354 
     30 C          24.6580   26.4381    1.7594 C.2       2 UNK         0.4964 
     31 O          24.3540   27.6278    1.6952 O.2       2 UNK        -0.5047 
     32 CA         25.3516   25.9059    3.0257 C.3       2 UNK         0.0288 
     33 CB         24.3174   25.6134    4.1246 C.3       2 UNK        -0.2113 
     34 N          26.1706   24.7063    2.8059 N.am      2 UNK        -0.4145 
     35 C          27.2752   24.6357    2.0443 C.2       1 UNK         0.5006 
     36 O          27.7154   25.5947    1.4058 O.2       1 UNK        -0.5103 
     37 C          30.4230   28.9870    0.9891 C.2       5 UNK         0.5055 
     38 O          30.7409   30.1457    1.2609 O.2       5 UNK        -0.5220 
     39 N          29.8503   28.1486    1.8679 N.am      6 UNK        -0.4450 
     40 CA         29.6175   28.4766    3.2788 C.3       6 UNK         0.0367 
     41 CB         29.2063   27.2173    4.0536 C.3       6 UNK        -0.1929 
     42 C          28.6193   29.6279    3.5043 C.2       6 UNK         0.5070 
     43 O          28.6394   30.2302    4.5777 O.2       6 UNK        -0.5237 
     44 N          27.7946   29.9443    2.4942 N.am      7 UNK        -0.4739 
     45 CA         26.9382   31.1323    2.4790 C.3       7 UNK         0.0276 
     46 CB         25.8678   30.9761    1.3879 C.3       7 UNK        -0.1927 
     47 C          27.7257   32.4391    2.2660 C.2       7 UNK         0.5013 
     48 O          27.2539   33.4925    2.6958 O.2       7 UNK        -0.5193 
     49 N          28.8912   32.3598    1.6066 N.am      8 UNK        -0.4253 
     50 CA         29.7828   33.4931    1.3619 C.3       8 UNK         0.0242 
     51 CB         30.4937   33.3212    0.0083 C.3       8 UNK        -0.2000 
     52 C          30.7954   33.6477    2.5044 C.2       8 UNK         0.4948 
     53 O          30.9398   34.7518    3.0315 O.2       8 UNK        -0.5275 
     54 N          31.4624   32.5490    2.8809 N.am      9 UNK        -0.4246 
     55 CA         32.4185   32.4934    3.9848 C.3       9 UNK         0.0261 
     56 CB         33.7842   33.0567    3.5483 C.3       9 UNK        -0.1959 
     57 C          32.5477   31.0405    4.4470 C.2       9 UNK         0.5033 
     58 O          32.7315   30.1583    3.6071 O.2       9 UNK        -0.5390 
     59 N          32.4571   30.8172    5.7641 N.am      10 UNK        -0.4215 
     60 CA         32.5346   29.4970    6.3951 C.3       10 UNK         0.0240 
     61 CB         32.2153   29.6338    7.8929 C.3       10 UNK        -0.1982 
     62 C          33.9020   28.8192    6.1958 C.2       10 UNK         0.4970 
     63 O          34.9312   29.4995    6.1905 O.2       10 UNK        -0.4916 
     64 N          33.8725   27.4899    6.0562 N.am      11 UNK        -0.4279 
     65 CA         35.0428   26.6222    5.8627 C.3       11 UNK         0.1003 
     66 C          36.0169   26.6387    7.0729 C.2       11 UNK         0.5709 
     67 N          37.3158   26.5361    6.8260 N.am      11 UNK        -0.7358 
     68 O          35.6036   26.6986    8.2300 O.2       11 UNK        -0.4999 
     69 C69        34.6104   25.1695    5.5330 C.3       12 UNK        -0.0954 
     70 S70        33.5296   25.0757    4.0658 S.3       12 UNK        -0.2268 
     71 C71        34.6383   24.2981    2.8535 C.3       12 UNK         0.0203 
     72 H72        27.4329   20.8562    5.1341 H         1 UNK         0.0888 
     73 H73        28.9285   21.3613    5.9220 H         1 UNK         0.0888 
     74 H74        27.4100   22.1769    6.3047 H         1 UNK         0.0888 
     75 H75        27.3117   21.5737    3.0373 H         1 UNK         0.3017 
     76 H76        27.4353   22.7263    1.1745 H         1 UNK         0.0873 
     77 H77        30.0601   23.8975    2.2267 H         1 UNK         0.0745 
     78 H78        29.5268   23.9297    0.5668 H         1 UNK         0.0745 
     79 H79        30.6723   22.2939   -1.0721 H         1 UNK         0.0705 
     80 H80        31.8025   21.1001   -0.4774 H         1 UNK         0.0705 
     81 H81        32.8119   22.4644    2.0426 H         1 UNK         0.1334 
     82 H82        34.9497   25.9137    0.6784 H         1 UNK         0.1417 
     83 H83        32.1295   23.9882   -1.9141 H         1 UNK         0.1562 
     84 H84        34.1705   25.5619   -2.7388 H         1 UNK         0.0748 
     85 H85        34.7246   26.7062   -1.5428 H         1 UNK         0.0748 
     86 H86        32.8409   28.6126   -0.3149 H         1 UNK         0.0940 
     87 H87        32.1952   27.0829    0.2221 H         1 UNK         0.0940 
     88 H88        30.6359   29.3453   -1.0953 H         1 UNK         0.0703 
     89 H89        29.9895   26.7316   -1.4012 H         1 UNK         0.3081 
     90 H90        27.1787   27.3295   -2.7417 H         1 UNK         0.0719 
     91 H91        27.5939   24.8580   -2.8461 H         1 UNK         0.0809 
     92 H92        29.0910   25.7592   -2.9151 H         1 UNK         0.0809 
     93 H93        28.6107   24.9558   -1.4165 H         1 UNK         0.0809 
     94 H94        26.4943   26.1293   -0.1120 H         1 UNK         0.2990 
     95 H95        23.1857   26.6930   -0.4624 H         1 UNK         0.0690 
     96 H96        23.9652   23.8472   -1.3061 H         1 UNK         0.0788 
     97 H97        22.8246   24.8933   -2.1395 H         1 UNK         0.0788 
     98 H98        22.4490   24.3072   -0.5292 H         1 UNK         0.0788 
     99 H99        24.6996   24.5964    0.9210 H         1 UNK         0.2993 
    100 H100       26.0069   26.7025    3.3807 H         1 UNK         0.0949 
    101 H101       23.6395   24.8083    3.8381 H         1 UNK         0.0767 
    102 H102       24.8015   25.3304    5.0596 H         1 UNK         0.0767 
    103 H103       23.7081   26.4945    4.3320 H         1 UNK         0.0767 
    104 H104       25.8866   23.8722    3.2990 H         1 UNK         0.3013 
    105 H105       29.5465   27.2362    1.5525 H         1 UNK         0.3121 
    106 H106       30.5711   28.8057    3.6900 H         1 UNK         0.0774 
    107 H107       28.2401   26.8421    3.7273 H         1 UNK         0.0815 
    108 H108       29.1276   27.4252    5.1214 H         1 UNK         0.0815 
    109 H109       29.9358   26.4156    3.9336 H         1 UNK         0.0815 
    110 H110       27.8377   29.4030    1.6373 H         1 UNK         0.2987 
    111 H111       26.4330   31.2058    3.4447 H         1 UNK         0.0949 
    112 H112       26.3110   30.8951    0.3947 H         1 UNK         0.0806 
    113 H113       25.2573   30.0900    1.5553 H         1 UNK         0.0806 
    114 H114       25.1941   31.8340    1.3755 H         1 UNK         0.0806 
    115 H115       29.2480   31.4449    1.3504 H         1 UNK         0.3010 
    116 H116       29.1945   34.4121    1.3088 H         1 UNK         0.0829 
    117 H117       29.7753   33.2458   -0.8081 H         1 UNK         0.0813 
    118 H118       31.1355   34.1775   -0.2032 H         1 UNK         0.0813 
    119 H119       31.1228   32.4313   -0.0176 H         1 UNK         0.0813 
    120 H120       31.2956   31.6642    2.4033 H         1 UNK         0.3038 
    121 H121       32.0341   33.0931    4.8130 H         1 UNK         0.0769 
    122 H122       34.1879   32.5099    2.6953 H         1 UNK         0.0811 
    123 H123       34.5124   32.9849    4.3572 H         1 UNK         0.0811 
    124 H124       33.7132   34.1080    3.2692 H         1 UNK         0.0811 
    125 H125       32.3461   31.6056    6.3850 H         1 UNK         0.3204 
    126 H126       31.7666   28.8714    5.9349 H         1 UNK         0.0748 
    127 H127       32.9365   30.2750    8.4018 H         1 UNK         0.0771 
    128 H128       31.2209   30.0521    8.0513 H         1 UNK         0.0771 
    129 H129       32.2385   28.6622    8.3886 H         1 UNK         0.0771 
    130 H130       32.9846   27.0127    6.0900 H         1 UNK         0.2980 
    131 H131       35.5831   27.0156    4.9992 H         1 UNK         0.0545 
    132 H132       37.9617   26.5288    7.6000 H         1 UNK         0.3459 
    133 H133       37.6652   26.4735    5.8824 H         1 UNK         0.3459 
    134 H134       35.4850   24.5359    5.3739 H         1 UNK         0.0616 
    135 H135       34.0706   24.7322    6.3750 H         1 UNK         0.0616 
    136 H136       34.9227   23.3047    3.2038 H         1 UNK         0.0634 
    137 H137       35.5581   24.8803    2.7772 H         1 UNK         0.0634 
@<TRIPOS>BOND
     1    1    2 1    
     2    1   72 1    
     3    1   73 1    
     4    1   74 1    
     5    2    3 2    
     6    2    4 am   BACKBONE|DICT|INTERRES
     7    4    5 1    
     8    4   75 1    
     9    5    6 1    
    10    5   35 1    
    11    5   76 1    
    12    6    7 1    
    13    6   77 1    
    14    6   78 1    
    15    7    8 1    
    16    8    9 1    
    17    8   79 1    
    18    8   80 1    
    19    9   10 ar   
    20    9   14 ar   
    21   10   11 ar   
    22   10   81 1    
    23   11   12 ar   
    24   11   71 1    
    25   12   13 ar   
    26   12   82 1    
    27   13   14 ar   
    28   13   15 1    
    29   14   83 1    
    30   15   16 1    
    31   15   84 1    
    32   15   85 1    
    33   16   17 1    
    34   17   18 1    
    35   17   86 1    
    36   17   87 1    
    37   18   19 1    
    38   18   37 1    
    39   18   88 1    
    40   19   20 am   BACKBONE|DICT|INTERRES
    41   19   89 1    
    42   20   21 2    
    43   20   22 1    
    44   22   23 1    
    45   22   24 1    
    46   22   90 1    
    47   23   91 1    
    48   23   92 1    
    49   23   93 1    
    50   24   25 am   BACKBONE|DICT|INTERRES
    51   24   94 1    
    52   25   26 2    
    53   25   27 1    
    54   27   28 1    
    55   27   29 1    
    56   27   95 1    
    57   28   96 1    
    58   28   97 1    
    59   28   98 1    
    60   29   30 am   BACKBONE|DICT|INTERRES
    61   29   99 1    
    62   30   31 2    
    63   30   32 1    
    64   32   33 1    
    65   32   34 1    
    66   32  100 1    
    67   33  101 1    
    68   33  102 1    
    69   33  103 1    
    70   34   35 am   BACKBONE|DICT|INTERRES
    71   34  104 1    
    72   35   36 2    
    73   37   38 2    
    74   37   39 am   BACKBONE|DICT|INTERRES
    75   39   40 1    
    76   39  105 1    
    77   40   41 1    
    78   40   42 1    
    79   40  106 1    
    80   41  107 1    
    81   41  108 1    
    82   41  109 1    
    83   42   43 2    
    84   42   44 am   BACKBONE|DICT|INTERRES
    85   44   45 1    
    86   44  110 1    
    87   45   46 1    
    88   45   47 1    
    89   45  111 1    
    90   46  112 1    
    91   46  113 1    
    92   46  114 1    
    93   47   48 2    
    94   47   49 am   BACKBONE|DICT|INTERRES
    95   49   50 1    
    96   49  115 1    
    97   50   51 1    
    98   50   52 1    
    99   50  116 1    
   100   51  117 1    
   101   51  118 1    
   102   51  119 1    
   103   52   53 2    
   104   52   54 am   BACKBONE|DICT|INTERRES
   105   54   55 1    
   106   54  120 1    
   107   55   56 1    
   108   55   57 1    
   109   55  121 1    
   110   56  122 1    
   111   56  123 1    
   112   56  124 1    
   113   57   58 2    
   114   57   59 am   BACKBONE|DICT|INTERRES
   115   59   60 1    
   116   59  125 1    
   117   60   61 1    
   118   60   62 1    
   119   60  126 1    
   120   61  127 1    
   121   61  128 1    
   122   61  129 1    
   123   62   63 2    
   124   62   64 am   BACKBONE|DICT|INTERRES
   125   64   65 1    
   126   64  130 1    
   127   65   66 1    
   128   65   69 1    
   129   65  131 1    
   130   66   67 am   BACKBONE|DICT|INTERRES
   131   66   68 2    
   132   67  132 1    
   133   67  133 1    
   134   69   70 1    
   135   69  134 1    
   136   69  135 1    
   137   70   71 1    
   138   71  136 1    
   139   71  137 1    
@<TRIPOS>SUBSTRUCTURE
     1 UNK         1 GROUP             0       ****    0 ROOT    
