@<TRIPOS>MOLECULE
3R136
137   139    1
SMALL
USER_CHARGES


@<TRIPOS>ATOM
      1 CA         32.2911   26.7829   -1.8636 C.3       0 UNK        -0.1979 
      2 C          31.4480   26.0997   -0.7967 C.2       0 UNK         0.4864 
      3 O          31.1824   26.6931    0.2478 O.2       0 UNK        -0.5359 
      4 N          31.0252   24.8597   -1.0661 N.am      1 UNK        -0.4318 
      5 CA         30.1277   24.0683   -0.2243 C.3       1 UNK         0.0824 
      6 C6         30.5634   22.5743   -0.2303 C.3       12 UNK        -0.0944 
      7 S7         29.6653   21.5094    0.9542 S.3       12 UNK        -0.2672 
      8 C8         30.8499   21.3385    2.3247 C.3       12 UNK         0.0333 
      9 C9         30.9505   22.6010    3.1696 C.ar      12 UNK        -0.0807 
     10 C10        32.1604   23.2984    3.2526 C.ar      12 UNK        -0.0894 
     11 C11        32.2719   24.4244    4.0735 C.ar      12 UNK        -0.0804 
     12 C12        31.1612   24.8580    4.8010 C.ar      12 UNK        -0.0824 
     13 C13        29.9433   24.1813    4.7174 C.ar      12 UNK        -0.0762 
     14 C14        29.8451   23.0476    3.9043 C.ar      12 UNK        -0.0782 
     15 C15        28.7565   24.6527    5.5473 C.3       12 UNK         0.0230 
     16 S16        27.3918   25.3073    4.5359 S.3       12 UNK        -0.2608 
     17 C17        28.0727   26.8629    3.8543 C.3       12 UNK        -0.0989 
     18 CA         27.8889   26.9326    2.3136 C.3       5 UNK         0.0716 
     19 N          26.4884   26.7752    1.8785 N.am      5 UNK        -0.4135 
     20 C          25.4852   27.6493    2.0803 C.2       4 UNK         0.5031 
     21 O          25.5716   28.6481    2.7955 O.2       4 UNK        -0.5229 
     22 CA         24.1622   27.4180    1.3272 C.3       4 UNK         0.0329 
     23 CB         24.1218   28.2906    0.0608 C.3       4 UNK        -0.2001 
     24 N          23.9372   26.0263    0.9457 N.am      4 UNK        -0.4303 
     25 C          23.5248   25.0604    1.7773 C.2       3 UNK         0.5044 
     26 O          23.2190   25.2507    2.9548 O.2       3 UNK        -0.5152 
     27 CA         23.4474   23.6348    1.1947 C.3       3 UNK         0.0319 
     28 CB         22.0070   23.3045    0.7709 C.3       3 UNK        -0.2001 
     29 N          24.3513   23.4036    0.0588 N.am      3 UNK        -0.4354 
     30 C          25.6872   23.4925    0.1243 C.2       2 UNK         0.4964 
     31 O          26.2896   23.7734    1.1624 O.2       2 UNK        -0.5047 
     32 CA         26.4589   23.2392   -1.1854 C.3       2 UNK         0.0288 
     33 CB         26.0127   24.1886   -2.3204 C.3       2 UNK        -0.2113 
     34 N          27.9122   23.2898   -0.9791 N.am      2 UNK        -0.4145 
     35 C          28.6696   24.3512   -0.6623 C.2       1 UNK         0.5006 
     36 O          28.2599   25.5162   -0.6846 O.2       1 UNK        -0.5103 
     37 C          28.4692   28.2134    1.6685 C.2       5 UNK         0.5055 
     38 O          28.7414   29.1971    2.3571 O.2       5 UNK        -0.5220 
     39 N          28.5095   28.1966    0.3291 N.am      6 UNK        -0.4450 
     40 CA         28.6068   29.3549   -0.5634 C.3       6 UNK         0.0367 
     41 CB         28.3580   28.8698   -2.0020 C.3       6 UNK        -0.1929 
     42 C          29.8996   30.1919   -0.4994 C.2       6 UNK         0.5070 
     43 O          29.8954   31.3092   -1.0199 O.2       6 UNK        -0.5237 
     44 N          30.9835   29.6553    0.0744 N.am      7 UNK        -0.4739 
     45 CA         32.2887   30.3200    0.1826 C.3       7 UNK         0.0276 
     46 CB         33.2977   29.3298    0.7778 C.3       7 UNK        -0.1927 
     47 C          32.2811   31.6011    1.0385 C.2       7 UNK         0.5013 
     48 O          31.3842   31.8071    1.8612 O.2       7 UNK        -0.5193 
     49 N          33.3396   32.4093    0.8766 N.am      8 UNK        -0.4253 
     50 CA         33.6460   33.5701    1.7173 C.3       8 UNK         0.0242 
     51 CB         34.9196   34.2575    1.1999 C.3       8 UNK        -0.2000 
     52 C          33.8120   33.1542    3.1887 C.2       8 UNK         0.4948 
     53 O          34.5287   32.1888    3.4685 O.2       8 UNK        -0.5275 
     54 N          33.0895   33.8455    4.0827 N.am      9 UNK        -0.4246 
     55 CA         32.9489   33.5519    5.5180 C.3       9 UNK         0.0261 
     56 CB         34.2713   33.8434    6.2597 C.3       9 UNK        -0.1959 
     57 C          32.4112   32.1325    5.8136 C.2       9 UNK         0.5033 
     58 O          32.6892   31.5892    6.8852 O.2       9 UNK        -0.5390 
     59 N          31.6886   31.5425    4.8453 N.am      10 UNK        -0.4215 
     60 CA         31.1913   30.1629    4.8177 C.3       10 UNK         0.0240 
     61 CB         30.0280   29.9858    5.8170 C.3       10 UNK        -0.1982 
     62 C          32.3029   29.1085    4.9950 C.2       10 UNK         0.4970 
     63 O          32.0383   28.0591    5.5805 O.2       10 UNK        -0.4916 
     64 N          33.5234   29.4213    4.5226 N.am      11 UNK        -0.4279 
     65 CA         34.7632   28.6361    4.6843 C.3       11 UNK         0.1003 
     66 C          35.1016   28.1881    6.1420 C.2       11 UNK         0.5709 
     67 N          34.6530   28.9085    7.1648 N.am      11 UNK        -0.7358 
     68 O          35.8103   27.2076    6.3575 O.2       11 UNK        -0.4999 
     69 C69        35.0136   27.5596    3.5733 C.3       12 UNK        -0.0954 
     70 S70        33.5852   26.5713    3.0148 S.3       12 UNK        -0.2268 
     71 C71        33.5839   25.1847    4.1794 C.3       12 UNK         0.0203 
     72 H72        33.3399   26.7849   -1.5690 H         1 UNK         0.0888 
     73 H73        32.2098   26.2806   -2.8273 H         1 UNK         0.0888 
     74 H74        31.9687   27.8151   -1.9968 H         1 UNK         0.0888 
     75 H75        31.2622   24.4457   -1.9563 H         1 UNK         0.3017 
     76 H76        30.2064   24.4203    0.8072 H         1 UNK         0.0873 
     77 H77        31.6283   22.5106   -0.0002 H         1 UNK         0.0745 
     78 H78        30.4600   22.1457   -1.2289 H         1 UNK         0.0745 
     79 H79        31.8242   21.0458    1.9300 H         1 UNK         0.0705 
     80 H80        30.5237   20.5169    2.9639 H         1 UNK         0.0705 
     81 H81        33.0193   22.9612    2.6885 H         1 UNK         0.1334 
     82 H82        31.2479   25.7254    5.4386 H         1 UNK         0.1417 
     83 H83        28.9075   22.5110    3.8449 H         1 UNK         0.1562 
     84 H84        29.0594   25.4136    6.2687 H         1 UNK         0.0748 
     85 H85        28.3820   23.8126    6.1337 H         1 UNK         0.0748 
     86 H86        29.1314   26.9434    4.1077 H         1 UNK         0.0940 
     87 H87        27.5781   27.7026    4.3453 H         1 UNK         0.0940 
     88 H88        28.4436   26.0934    1.8923 H         1 UNK         0.0703 
     89 H89        26.3068   25.9423    1.3321 H         1 UNK         0.3081 
     90 H90        23.3486   27.7333    1.9844 H         1 UNK         0.0719 
     91 H91        24.9132   28.0230   -0.6408 H         1 UNK         0.0809 
     92 H92        23.1665   28.1981   -0.4562 H         1 UNK         0.0809 
     93 H93        24.2522   29.3449    0.3097 H         1 UNK         0.0809 
     94 H94        24.1449   25.7740   -0.0091 H         1 UNK         0.2990 
     95 H95        23.7361   22.9456    1.9912 H         1 UNK         0.0690 
     96 H96        21.9159   22.2682    0.4448 H         1 UNK         0.0788 
     97 H97        21.6680   23.9458   -0.0437 H         1 UNK         0.0788 
     98 H98        21.3144   23.4415    1.6029 H         1 UNK         0.0788 
     99 H99        23.9192   23.1605   -0.8215 H         1 UNK         0.2993 
    100 H100       26.2353   22.2154   -1.4897 H         1 UNK         0.0949 
    101 H101       26.6369   24.0657   -3.2056 H         1 UNK         0.0767 
    102 H102       24.9856   23.9867   -2.6254 H         1 UNK         0.0767 
    103 H103       26.0603   25.2367   -2.0233 H         1 UNK         0.0767 
    104 H104       28.3507   22.3864   -0.8540 H         1 UNK         0.3013 
    105 H105       28.3470   27.2987   -0.1243 H         1 UNK         0.3121 
    106 H106       27.7923   30.0285   -0.2898 H         1 UNK         0.0774 
    107 H107       28.3765   29.7007   -2.7086 H         1 UNK         0.0815 
    108 H108       29.1175   28.1535   -2.3183 H         1 UNK         0.0815 
    109 H109       27.3845   28.3883   -2.0967 H         1 UNK         0.0815 
    110 H110       30.9137   28.7103    0.4413 H         1 UNK         0.2987 
    111 H111       32.6069   30.5874   -0.8271 H         1 UNK         0.0949 
    112 H112       34.2958   29.7627    0.8545 H         1 UNK         0.0806 
    113 H113       32.9922   29.0372    1.7806 H         1 UNK         0.0806 
    114 H114       33.3865   28.4261    0.1790 H         1 UNK         0.0806 
    115 H115       34.0473   32.1478    0.2059 H         1 UNK         0.3010 
    116 H116       32.8126   34.2706    1.6309 H         1 UNK         0.0829 
    117 H117       34.8026   34.5889    0.1678 H         1 UNK         0.0813 
    118 H118       35.1567   35.1390    1.7972 H         1 UNK         0.0813 
    119 H119       35.7836   33.5928    1.2445 H         1 UNK         0.0813 
    120 H120       32.5208   34.6099    3.7431 H         1 UNK         0.3038 
    121 H121       32.1957   34.2424    5.9001 H         1 UNK         0.0769 
    122 H122       34.1411   33.7667    7.3399 H         1 UNK         0.0811 
    123 H123       34.6308   34.8506    6.0500 H         1 UNK         0.0811 
    124 H124       35.0562   33.1410    5.9771 H         1 UNK         0.0811 
    125 H125       31.5502   32.0477    3.9759 H         1 UNK         0.3204 
    126 H126       30.7933   30.0039    3.8153 H         1 UNK         0.0748 
    127 H127       29.5688   29.0021    5.7130 H         1 UNK         0.0771 
    128 H128       30.3642   30.0827    6.8498 H         1 UNK         0.0771 
    129 H129       29.2446   30.7240    5.6457 H         1 UNK         0.0771 
    130 H130       33.6541   30.3336    4.1007 H         1 UNK         0.2980 
    131 H131       35.5387   29.3834    4.5122 H         1 UNK         0.0545 
    132 H132       34.8818   28.6256    8.1040 H         1 UNK         0.3459 
    133 H133       34.0588   29.7121    7.0089 H         1 UNK         0.3459 
    134 H134       35.3685   28.0778    2.6816 H         1 UNK         0.0616 
    135 H135       35.8297   26.8849    3.8356 H         1 UNK         0.0616 
    136 H136       34.4325   24.5310    3.9730 H         1 UNK         0.0634 
    137 H137       33.7133   25.5609    5.1952 H         1 UNK         0.0634 
@<TRIPOS>BOND
     1    1    2 1    
     2    1   72 1    
     3    1   73 1    
     4    1   74 1    
     5    2    3 2    
     6    2    4 am   BACKBONE|DICT|INTERRES
     7    4    5 1    
     8    4   75 1    
     9    5    6 1    
    10    5   35 1    
    11    5   76 1    
    12    6    7 1    
    13    6   77 1    
    14    6   78 1    
    15    7    8 1    
    16    8    9 1    
    17    8   79 1    
    18    8   80 1    
    19    9   10 ar   
    20    9   14 ar   
    21   10   11 ar   
    22   10   81 1    
    23   11   12 ar   
    24   11   71 1    
    25   12   13 ar   
    26   12   82 1    
    27   13   14 ar   
    28   13   15 1    
    29   14   83 1    
    30   15   16 1    
    31   15   84 1    
    32   15   85 1    
    33   16   17 1    
    34   17   18 1    
    35   17   86 1    
    36   17   87 1    
    37   18   19 1    
    38   18   37 1    
    39   18   88 1    
    40   19   20 am   BACKBONE|DICT|INTERRES
    41   19   89 1    
    42   20   21 2    
    43   20   22 1    
    44   22   23 1    
    45   22   24 1    
    46   22   90 1    
    47   23   91 1    
    48   23   92 1    
    49   23   93 1    
    50   24   25 am   BACKBONE|DICT|INTERRES
    51   24   94 1    
    52   25   26 2    
    53   25   27 1    
    54   27   28 1    
    55   27   29 1    
    56   27   95 1    
    57   28   96 1    
    58   28   97 1    
    59   28   98 1    
    60   29   30 am   BACKBONE|DICT|INTERRES
    61   29   99 1    
    62   30   31 2    
    63   30   32 1    
    64   32   33 1    
    65   32   34 1    
    66   32  100 1    
    67   33  101 1    
    68   33  102 1    
    69   33  103 1    
    70   34   35 am   BACKBONE|DICT|INTERRES
    71   34  104 1    
    72   35   36 2    
    73   37   38 2    
    74   37   39 am   BACKBONE|DICT|INTERRES
    75   39   40 1    
    76   39  105 1    
    77   40   41 1    
    78   40   42 1    
    79   40  106 1    
    80   41  107 1    
    81   41  108 1    
    82   41  109 1    
    83   42   43 2    
    84   42   44 am   BACKBONE|DICT|INTERRES
    85   44   45 1    
    86   44  110 1    
    87   45   46 1    
    88   45   47 1    
    89   45  111 1    
    90   46  112 1    
    91   46  113 1    
    92   46  114 1    
    93   47   48 2    
    94   47   49 am   BACKBONE|DICT|INTERRES
    95   49   50 1    
    96   49  115 1    
    97   50   51 1    
    98   50   52 1    
    99   50  116 1    
   100   51  117 1    
   101   51  118 1    
   102   51  119 1    
   103   52   53 2    
   104   52   54 am   BACKBONE|DICT|INTERRES
   105   54   55 1    
   106   54  120 1    
   107   55   56 1    
   108   55   57 1    
   109   55  121 1    
   110   56  122 1    
   111   56  123 1    
   112   56  124 1    
   113   57   58 2    
   114   57   59 am   BACKBONE|DICT|INTERRES
   115   59   60 1    
   116   59  125 1    
   117   60   61 1    
   118   60   62 1    
   119   60  126 1    
   120   61  127 1    
   121   61  128 1    
   122   61  129 1    
   123   62   63 2    
   124   62   64 am   BACKBONE|DICT|INTERRES
   125   64   65 1    
   126   64  130 1    
   127   65   66 1    
   128   65   69 1    
   129   65  131 1    
   130   66   67 am   BACKBONE|DICT|INTERRES
   131   66   68 2    
   132   67  132 1    
   133   67  133 1    
   134   69   70 1    
   135   69  134 1    
   136   69  135 1    
   137   70   71 1    
   138   71  136 1    
   139   71  137 1    
@<TRIPOS>SUBSTRUCTURE
     1 UNK         1 GROUP             0       ****    0 ROOT    
