@<TRIPOS>MOLECULE
3R136
137   139    1
SMALL
USER_CHARGES


@<TRIPOS>ATOM
      1 CA         29.2131   20.0157    1.9474 C.3       0 UNK        -0.1979 
      2 C          28.8243   20.3382    0.5118 C.2       0 UNK         0.4864 
      3 O          28.3006   19.4723   -0.1913 O.2       0 UNK        -0.5359 
      4 N          29.0827   21.5752    0.0717 N.am      1 UNK        -0.4318 
      5 CA         28.6915   22.1050   -1.2368 C.3       1 UNK         0.0824 
      6 C6         29.5452   23.3395   -1.6382 C.3       12 UNK        -0.0944 
      7 S7         29.6447   24.6369   -0.3524 S.3       12 UNK        -0.2672 
      8 C8         31.3427   24.3880    0.2588 C.3       12 UNK         0.0333 
      9 C9         31.5189   24.9922    1.6424 C.ar      12 UNK        -0.0807 
     10 C10        32.0127   26.2925    1.7946 C.ar      12 UNK        -0.0894 
     11 C11        32.1491   26.8516    3.0693 C.ar      12 UNK        -0.0804 
     12 C12        31.7973   26.0988    4.1919 C.ar      12 UNK        -0.0824 
     13 C13        31.2796   24.8094    4.0505 C.ar      12 UNK        -0.0762 
     14 C14        31.1604   24.2532    2.7745 C.ar      12 UNK        -0.0782 
     15 C15        30.7717   24.0545    5.2692 C.3       12 UNK         0.0230 
     16 S16        28.9536   24.1594    5.4003 S.3       12 UNK        -0.2608 
     17 C17        28.6855   25.9559    5.6152 C.3       12 UNK        -0.0989 
     18 CA         28.4051   26.6806    4.2720 C.3       5 UNK         0.0716 
     19 N          27.2208   26.1449    3.5870 N.am      5 UNK        -0.4135 
     20 C          26.9354   26.3464    2.2943 C.2       4 UNK         0.5031 
     21 O          27.5708   27.1244    1.5821 O.2       4 UNK        -0.5229 
     22 CA         25.7485   25.5422    1.7340 C.3       4 UNK         0.0329 
     23 CB         24.4114   25.9560    2.3861 C.3       4 UNK        -0.2001 
     24 N          25.6719   25.5749    0.2676 N.am      4 UNK        -0.4303 
     25 C          25.3294   26.5974   -0.5353 C.2       3 UNK         0.5044 
     26 O          24.9342   27.6928   -0.1334 O.2       3 UNK        -0.5152 
     27 CA         25.4337   26.3727   -2.0598 C.3       3 UNK         0.0319 
     28 CB         26.5744   27.2117   -2.6586 C.3       3 UNK        -0.2001 
     29 N          25.6390   24.9738   -2.4398 N.am      3 UNK        -0.4354 
     30 C          24.6983   24.0197   -2.4131 C.2       2 UNK         0.4964 
     31 O          23.5163   24.2310   -2.1408 O.2       2 UNK        -0.5047 
     32 CA         25.1558   22.5805   -2.7210 C.3       2 UNK         0.0288 
     33 CB         24.8266   22.2130   -4.1774 C.3       2 UNK        -0.2113 
     34 N          26.5826   22.3300   -2.4716 N.am      2 UNK        -0.4145 
     35 C          27.1798   22.4123   -1.2731 C.2       1 UNK         0.5006 
     36 O          26.5922   22.7535   -0.2423 O.2       1 UNK        -0.5103 
     37 C          28.4265   28.2175    4.4397 C.2       5 UNK         0.5055 
     38 O          29.4617   28.7626    4.8217 O.2       5 UNK        -0.5220 
     39 N          27.3130   28.8971    4.1369 N.am      6 UNK        -0.4450 
     40 CA         27.2094   30.3574    4.0962 C.3       6 UNK         0.0367 
     41 CB         25.7342   30.7473    4.2929 C.3       6 UNK        -0.1929 
     42 C          27.7637   30.9793    2.7961 C.2       6 UNK         0.5070 
     43 O          27.8209   32.2060    2.7072 O.2       6 UNK        -0.5237 
     44 N          28.1238   30.1537    1.8006 N.am      7 UNK        -0.4739 
     45 CA         28.5105   30.5763    0.4493 C.3       7 UNK         0.0276 
     46 CB         28.6120   29.3355   -0.4504 C.3       7 UNK        -0.1927 
     47 C          29.8015   31.4081    0.3391 C.2       7 UNK         0.5013 
     48 O          29.9657   32.1008   -0.6671 O.2       7 UNK        -0.5193 
     49 N          30.6963   31.3307    1.3310 N.am      8 UNK        -0.4253 
     50 CA         31.9660   32.0551    1.3510 C.3       8 UNK         0.0242 
     51 CB         33.0262   31.2904    0.5338 C.3       8 UNK        -0.2000 
     52 C          32.4248   32.2845    2.7947 C.2       8 UNK         0.4948 
     53 O          31.9431   31.6157    3.7124 O.2       8 UNK        -0.5275 
     54 N          33.3515   33.2358    2.9571 N.am      9 UNK        -0.4246 
     55 CA         34.0014   33.5749    4.2231 C.3       9 UNK         0.0261 
     56 CB         34.5756   34.9985    4.1102 C.3       9 UNK        -0.1959 
     57 C          35.1109   32.5707    4.5823 C.2       9 UNK         0.5033 
     58 O          35.5373   31.7837    3.7341 O.2       9 UNK        -0.5390 
     59 N          35.5710   32.6377    5.8390 N.am      10 UNK        -0.4215 
     60 CA         36.6332   31.8421    6.4745 C.3       10 UNK         0.0240 
     61 CB         37.9780   31.9578    5.7283 C.3       10 UNK        -0.1982 
     62 C          36.2532   30.3739    6.7306 C.2       10 UNK         0.4970 
     63 O          36.4464   29.9005    7.8512 O.2       10 UNK        -0.4916 
     64 N          35.7037   29.6878    5.7214 N.am      11 UNK        -0.4279 
     65 CA         35.1371   28.3354    5.8513 C.3       11 UNK         0.1003 
     66 C          33.7978   28.2677    6.6411 C.2       11 UNK         0.5709 
     67 N          33.0743   29.3665    6.8213 N.am      11 UNK        -0.7358 
     68 O          33.4217   27.2001    7.1181 O.2       11 UNK        -0.4999 
     69 C69        35.0705   27.5725    4.4979 C.3       12 UNK        -0.0954 
     70 S70        34.3967   28.5140    3.0833 S.3       12 UNK        -0.2268 
     71 C71        32.5964   28.2953    3.2380 C.3       12 UNK         0.0203 
     72 H72        29.6559   20.8732    2.4537 H         1 UNK         0.0888 
     73 H73        28.3341   19.7067    2.5128 H         1 UNK         0.0888 
     74 H74        29.9354   19.2000    1.9666 H         1 UNK         0.0888 
     75 H75        29.4591   22.2641    0.7055 H         1 UNK         0.3017 
     76 H76        28.8786   21.3232   -1.9767 H         1 UNK         0.0873 
     77 H77        30.5553   23.0100   -1.8865 H         1 UNK         0.0745 
     78 H78        29.1656   23.7940   -2.5553 H         1 UNK         0.0745 
     79 H79        32.0481   24.8304   -0.4463 H         1 UNK         0.0705 
     80 H80        31.5735   23.3223    0.2974 H         1 UNK         0.0705 
     81 H81        32.2697   26.8778    0.9223 H         1 UNK         0.1334 
     82 H82        31.8642   26.5418    5.1748 H         1 UNK         0.1417 
     83 H83        30.7493   23.2598    2.6633 H         1 UNK         0.1562 
     84 H84        31.2270   24.4404    6.1829 H         1 UNK         0.0748 
     85 H85        31.0645   23.0058    5.1998 H         1 UNK         0.0748 
     86 H86        29.5575   26.3801    6.1169 H         1 UNK         0.0940 
     87 H87        27.8503   26.0993    6.3031 H         1 UNK         0.0940 
     88 H88        29.2354   26.4763    3.5982 H         1 UNK         0.0703 
     89 H89        26.6652   25.4889    4.1165 H         1 UNK         0.3081 
     90 H90        25.9340   24.4966    1.9854 H         1 UNK         0.0719 
     91 H91        24.4056   25.7327    3.4533 H         1 UNK         0.0809 
     92 H92        23.5727   25.4188    1.9431 H         1 UNK         0.0809 
     93 H93        24.2173   27.0238    2.2811 H         1 UNK         0.0809 
     94 H94        25.9965   24.7224   -0.1756 H         1 UNK         0.2990 
     95 H95        24.4946   26.7126   -2.5018 H         1 UNK         0.0690 
     96 H96        26.6389   27.0840   -3.7393 H         1 UNK         0.0788 
     97 H97        27.5405   26.9429   -2.2283 H         1 UNK         0.0788 
     98 H98        26.4145   28.2743   -2.4718 H         1 UNK         0.0788 
     99 H99        26.5808   24.7076   -2.6858 H         1 UNK         0.2993 
    100 H100       24.5870   21.9191   -2.0636 H         1 UNK         0.0949 
    101 H101       23.7662   22.3606   -4.3876 H         1 UNK         0.0767 
    102 H102       25.3872   22.8251   -4.8852 H         1 UNK         0.0767 
    103 H103       25.0519   21.1665   -4.3841 H         1 UNK         0.0767 
    104 H104       27.1330   22.0504   -3.2714 H         1 UNK         0.3013 
    105 H105       26.5111   28.3756    3.8148 H         1 UNK         0.3121 
    106 H106       27.7850   30.7757    4.9249 H         1 UNK         0.0774 
    107 H107       25.6155   31.8315    4.3170 H         1 UNK         0.0815 
    108 H108       25.1056   30.3694    3.4854 H         1 UNK         0.0815 
    109 H109       25.3428   30.3611    5.2342 H         1 UNK         0.0815 
    110 H110       28.0223   29.1527    1.9367 H         1 UNK         0.2987 
    111 H111       27.7025   31.2034    0.0662 H         1 UNK         0.0949 
    112 H112       27.6627   28.8029   -0.4826 H         1 UNK         0.0806 
    113 H113       28.8660   29.6064   -1.4762 H         1 UNK         0.0806 
    114 H114       29.3729   28.6392   -0.0948 H         1 UNK         0.0806 
    115 H115       30.4803   30.8068    2.1702 H         1 UNK         0.3010 
    116 H116       31.8150   33.0400    0.9029 H         1 UNK         0.0829 
    117 H117       32.7352   31.2050   -0.5132 H         1 UNK         0.0813 
    118 H118       33.9903   31.7999    0.5582 H         1 UNK         0.0813 
    119 H119       33.1846   30.2834    0.9170 H         1 UNK         0.0813 
    120 H120       33.7171   33.6952    2.1358 H         1 UNK         0.3038 
    121 H121       33.2508   33.5583    5.0165 H         1 UNK         0.0769 
    122 H122       35.3502   35.0617    3.3445 H         1 UNK         0.0811 
    123 H123       35.0222   35.3237    5.0506 H         1 UNK         0.0811 
    124 H124       33.7982   35.7210    3.8604 H         1 UNK         0.0811 
    125 H125       35.1323   33.3107    6.4534 H         1 UNK         0.3204 
    126 H126       36.7777   32.2958    7.4566 H         1 UNK         0.0748 
    127 H127       38.7742   31.4648    6.2875 H         1 UNK         0.0771 
    128 H128       37.9442   31.4938    4.7423 H         1 UNK         0.0771 
    129 H129       38.2706   32.9998    5.5985 H         1 UNK         0.0771 
    130 H130       35.5740   30.1571    4.8290 H         1 UNK         0.2980 
    131 H131       35.8387   27.7702    6.4681 H         1 UNK         0.0545 
    132 H132       33.3600   30.2405    6.4121 H         1 UNK         0.3459 
    133 H133       32.2109   29.3084    7.3368 H         1 UNK         0.3459 
    134 H134       34.5410   26.6244    4.5997 H         1 UNK         0.0616 
    135 H135       36.0862   27.2933    4.2146 H         1 UNK         0.0616 
    136 H136       32.1035   28.9054    2.4813 H         1 UNK         0.0634 
    137 H137       32.2606   28.6962    4.1943 H         1 UNK         0.0634 
@<TRIPOS>BOND
     1    1    2 1    
     2    1   72 1    
     3    1   73 1    
     4    1   74 1    
     5    2    3 2    
     6    2    4 am   BACKBONE|DICT|INTERRES
     7    4    5 1    
     8    4   75 1    
     9    5    6 1    
    10    5   35 1    
    11    5   76 1    
    12    6    7 1    
    13    6   77 1    
    14    6   78 1    
    15    7    8 1    
    16    8    9 1    
    17    8   79 1    
    18    8   80 1    
    19    9   10 ar   
    20    9   14 ar   
    21   10   11 ar   
    22   10   81 1    
    23   11   12 ar   
    24   11   71 1    
    25   12   13 ar   
    26   12   82 1    
    27   13   14 ar   
    28   13   15 1    
    29   14   83 1    
    30   15   16 1    
    31   15   84 1    
    32   15   85 1    
    33   16   17 1    
    34   17   18 1    
    35   17   86 1    
    36   17   87 1    
    37   18   19 1    
    38   18   37 1    
    39   18   88 1    
    40   19   20 am   BACKBONE|DICT|INTERRES
    41   19   89 1    
    42   20   21 2    
    43   20   22 1    
    44   22   23 1    
    45   22   24 1    
    46   22   90 1    
    47   23   91 1    
    48   23   92 1    
    49   23   93 1    
    50   24   25 am   BACKBONE|DICT|INTERRES
    51   24   94 1    
    52   25   26 2    
    53   25   27 1    
    54   27   28 1    
    55   27   29 1    
    56   27   95 1    
    57   28   96 1    
    58   28   97 1    
    59   28   98 1    
    60   29   30 am   BACKBONE|DICT|INTERRES
    61   29   99 1    
    62   30   31 2    
    63   30   32 1    
    64   32   33 1    
    65   32   34 1    
    66   32  100 1    
    67   33  101 1    
    68   33  102 1    
    69   33  103 1    
    70   34   35 am   BACKBONE|DICT|INTERRES
    71   34  104 1    
    72   35   36 2    
    73   37   38 2    
    74   37   39 am   BACKBONE|DICT|INTERRES
    75   39   40 1    
    76   39  105 1    
    77   40   41 1    
    78   40   42 1    
    79   40  106 1    
    80   41  107 1    
    81   41  108 1    
    82   41  109 1    
    83   42   43 2    
    84   42   44 am   BACKBONE|DICT|INTERRES
    85   44   45 1    
    86   44  110 1    
    87   45   46 1    
    88   45   47 1    
    89   45  111 1    
    90   46  112 1    
    91   46  113 1    
    92   46  114 1    
    93   47   48 2    
    94   47   49 am   BACKBONE|DICT|INTERRES
    95   49   50 1    
    96   49  115 1    
    97   50   51 1    
    98   50   52 1    
    99   50  116 1    
   100   51  117 1    
   101   51  118 1    
   102   51  119 1    
   103   52   53 2    
   104   52   54 am   BACKBONE|DICT|INTERRES
   105   54   55 1    
   106   54  120 1    
   107   55   56 1    
   108   55   57 1    
   109   55  121 1    
   110   56  122 1    
   111   56  123 1    
   112   56  124 1    
   113   57   58 2    
   114   57   59 am   BACKBONE|DICT|INTERRES
   115   59   60 1    
   116   59  125 1    
   117   60   61 1    
   118   60   62 1    
   119   60  126 1    
   120   61  127 1    
   121   61  128 1    
   122   61  129 1    
   123   62   63 2    
   124   62   64 am   BACKBONE|DICT|INTERRES
   125   64   65 1    
   126   64  130 1    
   127   65   66 1    
   128   65   69 1    
   129   65  131 1    
   130   66   67 am   BACKBONE|DICT|INTERRES
   131   66   68 2    
   132   67  132 1    
   133   67  133 1    
   134   69   70 1    
   135   69  134 1    
   136   69  135 1    
   137   70   71 1    
   138   71  136 1    
   139   71  137 1    
@<TRIPOS>SUBSTRUCTURE
     1 UNK         1 GROUP             0       ****    0 ROOT    
