@<TRIPOS>MOLECULE
3R136
137   139    1
SMALL
USER_CHARGES


@<TRIPOS>ATOM
      1 CA         24.2680   23.1378    2.0511 C.3       0 UNK        -0.1979 
      2 C          25.7762   23.0262    2.2136 C.2       0 UNK         0.4864 
      3 O          26.3115   23.4433    3.2422 O.2       0 UNK        -0.5359 
      4 N          26.4645   22.4823    1.1983 N.am      1 UNK        -0.4318 
      5 CA         27.9231   22.3266    1.1195 C.3       1 UNK         0.0824 
      6 C6         28.4656   21.2405    2.0998 C.3       12 UNK        -0.0944 
      7 S7         29.7776   20.2108    1.3605 S.3       12 UNK        -0.2672 
      8 C8         31.3179   20.9027    2.0639 C.3       12 UNK         0.0333 
      9 C9         31.8962   22.1056    1.3151 C.ar      12 UNK        -0.0807 
     10 C10        32.7196   23.0023    2.0066 C.ar      12 UNK        -0.0894 
     11 C11        33.2841   24.1058    1.3581 C.ar      12 UNK        -0.0804 
     12 C12        33.0340   24.3020   -0.0024 C.ar      12 UNK        -0.0824 
     13 C13        32.2140   23.4184   -0.7087 C.ar      12 UNK        -0.0762 
     14 C14        31.6596   22.3181   -0.0499 C.ar      12 UNK        -0.0782 
     15 C15        31.9221   23.6516   -2.1841 C.3       12 UNK         0.0230 
     16 S16        30.3342   24.5096   -2.4289 S.3       12 UNK        -0.2608 
     17 C17        30.7139   26.1411   -1.7111 C.3       12 UNK        -0.0989 
     18 CA         29.5919   27.1783   -1.9553 C.3       5 UNK         0.0716 
     19 N          28.3478   26.8259   -1.2678 N.am      5 UNK        -0.4135 
     20 C          27.1559   27.4042   -1.4757 C.2       4 UNK         0.5031 
     21 O          26.9702   28.3407   -2.2532 O.2       4 UNK        -0.5229 
     22 CA         25.9630   26.8366   -0.6912 C.3       4 UNK         0.0329 
     23 CB         25.4851   25.5073   -1.3006 C.3       4 UNK        -0.2001 
     24 N          26.3140   26.6338    0.7134 N.am      4 UNK        -0.4303 
     25 C          26.0556   27.5094    1.6946 C.2       3 UNK         0.5044 
     26 O          25.4004   28.5388    1.5361 O.2       3 UNK        -0.5152 
     27 CA         26.6160   27.1983    3.0960 C.3       3 UNK         0.0319 
     28 CB         25.4988   26.7107    4.0319 C.3       3 UNK        -0.2001 
     29 N          27.7056   26.2214    3.0873 N.am      3 UNK        -0.4354 
     30 C          28.9406   26.4665    2.6237 C.2       2 UNK         0.4964 
     31 O          29.2985   27.5514    2.1590 O.2       2 UNK        -0.5047 
     32 CA         29.9230   25.2823    2.6319 C.3       2 UNK         0.0288 
     33 CB         30.6018   25.1748    4.0041 C.3       2 UNK        -0.2113 
     34 N          29.3046   23.9933    2.3180 N.am      2 UNK        -0.4145 
     35 C          28.5934   23.7137    1.2184 C.2       1 UNK         0.5006 
     36 O          28.3793   24.5373    0.3282 O.2       1 UNK        -0.5103 
     37 C          30.0875   28.5902   -1.5930 C.2       5 UNK         0.5055 
     38 O          30.3362   29.3872   -2.4998 O.2       5 UNK        -0.5220 
     39 N          30.2540   28.8630   -0.2916 N.am      6 UNK        -0.4450 
     40 CA         30.7977   30.1264    0.2097 C.3       6 UNK         0.0367 
     41 CB         31.8658   29.8426    1.2766 C.3       6 UNK        -0.1929 
     42 C          29.6966   31.0249    0.7789 C.2       6 UNK         0.5070 
     43 O          29.7139   32.2285    0.5172 O.2       6 UNK        -0.5237 
     44 N          28.7711   30.4347    1.5514 N.am      7 UNK        -0.4739 
     45 CA         27.6665   31.0696    2.2882 C.3       7 UNK         0.0276 
     46 CB         26.6884   31.8049    1.3503 C.3       7 UNK        -0.1927 
     47 C          28.1398   31.9665    3.4453 C.2       7 UNK         0.5013 
     48 O          27.7601   31.7239    4.5913 O.2       7 UNK        -0.5193 
     49 N          28.9802   32.9603    3.1363 N.am      8 UNK        -0.4253 
     50 CA         29.7223   33.7600    4.1078 C.3       8 UNK         0.0242 
     51 CB         30.2288   35.0412    3.4275 C.3       8 UNK        -0.2000 
     52 C          30.8977   32.9370    4.6535 C.2       8 UNK         0.4948 
     53 O          31.5528   32.2326    3.8802 O.2       8 UNK        -0.5275 
     54 N          31.1356   33.0239    5.9694 N.am      9 UNK        -0.4246 
     55 CA         32.1520   32.3128    6.7651 C.3       9 UNK         0.0261 
     56 CB         33.5806   32.6881    6.3248 C.3       9 UNK        -0.1959 
     57 C          31.9719   30.7817    6.8343 C.2       9 UNK         0.5033 
     58 O          32.0896   30.2237    7.9254 O.2       9 UNK        -0.5390 
     59 N          31.6690   30.1510    5.6909 N.am      10 UNK        -0.4215 
     60 CA         31.3739   28.7305    5.4734 C.3       10 UNK         0.0240 
     61 CB         29.9894   28.3909    6.0674 C.3       10 UNK        -0.1982 
     62 C          32.4955   27.7950    5.9842 C.2       10 UNK         0.4970 
     63 O          32.2769   27.0721    6.9562 O.2       10 UNK        -0.4916 
     64 N          33.6846   27.7725    5.3670 N.am      11 UNK        -0.4279 
     65 CA         34.1589   28.5848    4.2351 C.3       11 UNK         0.1003 
     66 C          35.2638   29.5709    4.6979 C.2       11 UNK         0.5709 
     67 N          35.4903   30.6397    3.9468 N.am      11 UNK        -0.7358 
     68 O          35.9338   29.3689    5.7095 O.2       11 UNK        -0.4999 
     69 C69        34.6789   27.6913    3.0772 C.3       12 UNK        -0.0954 
     70 S70        33.3546   26.7018    2.3102 S.3       12 UNK        -0.2268 
     71 C71        34.1692   25.0864    2.1161 C.3       12 UNK         0.0203 
     72 H72        23.9145   22.6192    1.1602 H         1 UNK         0.0888 
     73 H73        23.7647   22.7061    2.9158 H         1 UNK         0.0888 
     74 H74        23.9765   24.1848    1.9731 H         1 UNK         0.0888 
     75 H75        25.9613   22.1833    0.3745 H         1 UNK         0.3017 
     76 H76        28.1100   21.9885    0.0988 H         1 UNK         0.0873 
     77 H77        28.7678   21.6269    3.0732 H         1 UNK         0.0745 
     78 H78        27.6618   20.5404    2.3336 H         1 UNK         0.0745 
     79 H79        31.1493   21.1524    3.1125 H         1 UNK         0.0705 
     80 H80        32.0722   20.1150    2.0573 H         1 UNK         0.0705 
     81 H81        32.9223   22.8405    3.0565 H         1 UNK         0.1334 
     82 H82        33.4674   25.1554   -0.5060 H         1 UNK         0.1417 
     83 H83        31.0384   21.6343   -0.6107 H         1 UNK         0.1562 
     84 H84        31.8903   22.6951   -2.7080 H         1 UNK         0.0748 
     85 H85        32.7244   24.2257   -2.6503 H         1 UNK         0.0748 
     86 H86        31.6556   26.4835   -2.1459 H         1 UNK         0.0940 
     87 H87        30.8918   26.0208   -0.6409 H         1 UNK         0.0940 
     88 H88        29.3740   27.1858   -3.0257 H         1 UNK         0.0703 
     89 H89        28.3954   26.0096   -0.6595 H         1 UNK         0.3081 
     90 H90        25.1403   27.5506   -0.7706 H         1 UNK         0.0719 
     91 H91        26.2607   24.7413   -1.2783 H         1 UNK         0.0809 
     92 H92        24.6168   25.1189   -0.7683 H         1 UNK         0.0809 
     93 H93        25.1925   25.6420   -2.3427 H         1 UNK         0.0809 
     94 H94        26.8988   25.8323    0.9181 H         1 UNK         0.2990 
     95 H95        27.0117   28.1264    3.5101 H         1 UNK         0.0690 
     96 H96        25.8756   26.5252    5.0378 H         1 UNK         0.0788 
     97 H97        25.0389   25.7911    3.6707 H         1 UNK         0.0788 
     98 H98        24.7080   27.4575    4.1156 H         1 UNK         0.0788 
     99 H99        27.4745   25.2830    3.3966 H         1 UNK         0.2993 
    100 H100       30.6812   25.4737    1.8709 H         1 UNK         0.0949 
    101 H101       29.8813   25.0041    4.8050 H         1 UNK         0.0767 
    102 H102       31.3321   24.3682    4.0343 H         1 UNK         0.0767 
    103 H103       31.1367   26.0926    4.2327 H         1 UNK         0.0767 
    104 H104       29.3956   23.2730    3.0177 H         1 UNK         0.3013 
    105 H105       29.9788   28.1795    0.4071 H         1 UNK         0.3121 
    106 H106       31.2849   30.6797   -0.5963 H         1 UNK         0.0774 
    107 H107       32.2683   30.7713    1.6832 H         1 UNK         0.0815 
    108 H108       31.4628   29.2677    2.1098 H         1 UNK         0.0815 
    109 H109       32.7019   29.2850    0.8556 H         1 UNK         0.0815 
    110 H110       28.8922   29.4433    1.7378 H         1 UNK         0.2987 
    111 H111       27.1086   30.2557    2.7475 H         1 UNK         0.0949 
    112 H112       27.1462   32.6642    0.8602 H         1 UNK         0.0806 
    113 H113       26.3124   31.1373    0.5748 H         1 UNK         0.0806 
    114 H114       25.8248   32.1726    1.9057 H         1 UNK         0.0806 
    115 H115       29.2967   33.0009    2.1702 H         1 UNK         0.3010 
    116 H116       29.0536   34.0342    4.9267 H         1 UNK         0.0829 
    117 H117       29.4027   35.6366    3.0382 H         1 UNK         0.0813 
    118 H118       30.7770   35.6677    4.1323 H         1 UNK         0.0813 
    119 H119       30.9009   34.8176    2.5975 H         1 UNK         0.0813 
    120 H120       30.5181   33.6124    6.5124 H         1 UNK         0.3038 
    121 H121       32.0266   32.6785    7.7857 H         1 UNK         0.0769 
    122 H122       33.7771   32.4106    5.2899 H         1 UNK         0.0811 
    123 H123       34.3253   32.1829    6.9416 H         1 UNK         0.0811 
    124 H124       33.7539   33.7599    6.4198 H         1 UNK         0.0811 
    125 H125       31.6227   30.7497    4.8657 H         1 UNK         0.3204 
    126 H126       31.2897   28.5767    4.3975 H         1 UNK         0.0748 
    127 H127       29.7235   27.3504    5.8803 H         1 UNK         0.0771 
    128 H128       29.9612   28.5442    7.1467 H         1 UNK         0.0771 
    129 H129       29.2084   29.0075    5.6214 H         1 UNK         0.0771 
    130 H130       34.4029   27.1905    5.7713 H         1 UNK         0.2980 
    131 H131       33.3532   29.1979    3.8359 H         1 UNK         0.0545 
    132 H132       34.9599   30.8152    3.1082 H         1 UNK         0.3459 
    133 H133       36.2154   31.2830    4.2222 H         1 UNK         0.3459 
    134 H134       35.1189   28.3002    2.2852 H         1 UNK         0.0616 
    135 H135       35.4732   27.0319    3.4320 H         1 UNK         0.0616 
    136 H136       35.1075   25.2174    1.5752 H         1 UNK         0.0634 
    137 H137       34.4261   24.6959    3.1020 H         1 UNK         0.0634 
@<TRIPOS>BOND
     1    1    2 1    
     2    1   72 1    
     3    1   73 1    
     4    1   74 1    
     5    2    3 2    
     6    2    4 am   BACKBONE|DICT|INTERRES
     7    4    5 1    
     8    4   75 1    
     9    5    6 1    
    10    5   35 1    
    11    5   76 1    
    12    6    7 1    
    13    6   77 1    
    14    6   78 1    
    15    7    8 1    
    16    8    9 1    
    17    8   79 1    
    18    8   80 1    
    19    9   10 ar   
    20    9   14 ar   
    21   10   11 ar   
    22   10   81 1    
    23   11   12 ar   
    24   11   71 1    
    25   12   13 ar   
    26   12   82 1    
    27   13   14 ar   
    28   13   15 1    
    29   14   83 1    
    30   15   16 1    
    31   15   84 1    
    32   15   85 1    
    33   16   17 1    
    34   17   18 1    
    35   17   86 1    
    36   17   87 1    
    37   18   19 1    
    38   18   37 1    
    39   18   88 1    
    40   19   20 am   BACKBONE|DICT|INTERRES
    41   19   89 1    
    42   20   21 2    
    43   20   22 1    
    44   22   23 1    
    45   22   24 1    
    46   22   90 1    
    47   23   91 1    
    48   23   92 1    
    49   23   93 1    
    50   24   25 am   BACKBONE|DICT|INTERRES
    51   24   94 1    
    52   25   26 2    
    53   25   27 1    
    54   27   28 1    
    55   27   29 1    
    56   27   95 1    
    57   28   96 1    
    58   28   97 1    
    59   28   98 1    
    60   29   30 am   BACKBONE|DICT|INTERRES
    61   29   99 1    
    62   30   31 2    
    63   30   32 1    
    64   32   33 1    
    65   32   34 1    
    66   32  100 1    
    67   33  101 1    
    68   33  102 1    
    69   33  103 1    
    70   34   35 am   BACKBONE|DICT|INTERRES
    71   34  104 1    
    72   35   36 2    
    73   37   38 2    
    74   37   39 am   BACKBONE|DICT|INTERRES
    75   39   40 1    
    76   39  105 1    
    77   40   41 1    
    78   40   42 1    
    79   40  106 1    
    80   41  107 1    
    81   41  108 1    
    82   41  109 1    
    83   42   43 2    
    84   42   44 am   BACKBONE|DICT|INTERRES
    85   44   45 1    
    86   44  110 1    
    87   45   46 1    
    88   45   47 1    
    89   45  111 1    
    90   46  112 1    
    91   46  113 1    
    92   46  114 1    
    93   47   48 2    
    94   47   49 am   BACKBONE|DICT|INTERRES
    95   49   50 1    
    96   49  115 1    
    97   50   51 1    
    98   50   52 1    
    99   50  116 1    
   100   51  117 1    
   101   51  118 1    
   102   51  119 1    
   103   52   53 2    
   104   52   54 am   BACKBONE|DICT|INTERRES
   105   54   55 1    
   106   54  120 1    
   107   55   56 1    
   108   55   57 1    
   109   55  121 1    
   110   56  122 1    
   111   56  123 1    
   112   56  124 1    
   113   57   58 2    
   114   57   59 am   BACKBONE|DICT|INTERRES
   115   59   60 1    
   116   59  125 1    
   117   60   61 1    
   118   60   62 1    
   119   60  126 1    
   120   61  127 1    
   121   61  128 1    
   122   61  129 1    
   123   62   63 2    
   124   62   64 am   BACKBONE|DICT|INTERRES
   125   64   65 1    
   126   64  130 1    
   127   65   66 1    
   128   65   69 1    
   129   65  131 1    
   130   66   67 am   BACKBONE|DICT|INTERRES
   131   66   68 2    
   132   67  132 1    
   133   67  133 1    
   134   69   70 1    
   135   69  134 1    
   136   69  135 1    
   137   70   71 1    
   138   71  136 1    
   139   71  137 1    
@<TRIPOS>SUBSTRUCTURE
     1 UNK         1 GROUP             0       ****    0 ROOT    
