@<TRIPOS>MOLECULE
3R136
137   139    1
SMALL
USER_CHARGES


@<TRIPOS>ATOM
      1 CA         27.3135   23.9373    6.0865 C.3       0 UNK        -0.1979 
      2 C          27.1364   23.4630    4.6521 C.2       0 UNK         0.4864 
      3 O          26.3712   22.5308    4.3993 O.2       0 UNK        -0.5359 
      4 N          27.8162   24.1140    3.7023 N.am      1 UNK        -0.4318 
      5 CA         27.7513   23.8360    2.2657 C.3       1 UNK         0.0824 
      6 C6         29.0718   24.2189    1.5543 C.3       12 UNK        -0.0944 
      7 S7         30.5097   23.2319    2.0954 S.3       12 UNK        -0.2672 
      8 C8         31.6063   24.5018    2.8222 C.3       12 UNK         0.0333 
      9 C9         32.4430   25.2997    1.8169 C.ar      12 UNK        -0.0807 
     10 C10        33.7238   25.7325    2.1802 C.ar      12 UNK        -0.0894 
     11 C11        34.4913   26.5282    1.3218 C.ar      12 UNK        -0.0804 
     12 C12        33.9652   26.8838    0.0723 C.ar      12 UNK        -0.0824 
     13 C13        32.6862   26.4702   -0.3022 C.ar      12 UNK        -0.0762 
     14 C14        31.9457   25.6621    0.5609 C.ar      12 UNK        -0.0782 
     15 C15        32.0782   26.9168   -1.6242 C.3       12 UNK         0.0230 
     16 S16        31.5186   28.6569   -1.5986 S.3       12 UNK        -0.2608 
     17 C17        30.5425   28.8115   -0.0569 C.3       12 UNK        -0.0989 
     18 CA         29.0097   28.8855   -0.2724 C.3       5 UNK         0.0716 
     19 N          28.5090   27.7339   -1.0331 N.am      5 UNK        -0.4135 
     20 C          27.3081   27.6384   -1.6192 C.2       4 UNK         0.5031 
     21 O          26.4132   28.4740   -1.4863 O.2       4 UNK        -0.5229 
     22 CA         27.0686   26.4267   -2.5351 C.3       4 UNK         0.0329 
     23 CB         28.3189   25.5584   -2.7962 C.3       4 UNK        -0.2001 
     24 N          26.0117   25.5910   -1.9725 N.am      4 UNK        -0.4303 
     25 C          25.0151   25.0301   -2.6714 C.2       3 UNK         0.5044 
     26 O          24.8530   25.2029   -3.8806 O.2       3 UNK        -0.5152 
     27 CA         24.0444   24.0882   -1.9277 C.3       3 UNK         0.0319 
     28 CB         24.2248   22.6398   -2.4137 C.3       3 UNK        -0.2001 
     29 N          24.1945   24.1119   -0.4712 N.am      3 UNK        -0.4354 
     30 C          23.7157   25.0697    0.3332 C.2       2 UNK         0.4964 
     31 O          23.0250   26.0102   -0.0592 O.2       2 UNK        -0.5047 
     32 CA         24.0829   24.9779    1.8268 C.3       2 UNK         0.0288 
     33 CB         22.9382   24.3304    2.6226 C.3       2 UNK        -0.2113 
     34 N          25.3348   24.2678    2.1268 N.am      2 UNK        -0.4145 
     35 C          26.5497   24.5883    1.6588 C.2       1 UNK         0.5006 
     36 O          26.7387   25.4710    0.8177 O.2       1 UNK        -0.5103 
     37 C          28.3178   29.1133    1.0915 C.2       5 UNK         0.5055 
     38 O          28.5296   30.1752    1.6791 O.2       5 UNK        -0.5220 
     39 N          27.5489   28.1325    1.5897 N.am      6 UNK        -0.4450 
     40 CA         26.9557   28.0697    2.9283 C.3       6 UNK         0.0367 
     41 CB         25.9627   29.2257    3.1891 C.3       6 UNK        -0.1929 
     42 C          28.0465   27.9069    3.9997 C.2       6 UNK         0.5070 
     43 O          28.5376   26.7915    4.1814 O.2       6 UNK        -0.5237 
     44 N          28.3936   28.9928    4.7001 N.am      7 UNK        -0.4739 
     45 CA         29.3729   29.0060    5.7857 C.3       7 UNK         0.0276 
     46 CB         29.3430   30.3771    6.4814 C.3       7 UNK        -0.1927 
     47 C          30.7916   28.6716    5.2965 C.2       7 UNK         0.5013 
     48 O          31.3725   29.4400    4.5253 O.2       7 UNK        -0.5193 
     49 N          31.3498   27.5639    5.8029 N.am      8 UNK        -0.4253 
     50 CA         32.7158   27.1137    5.5141 C.3       8 UNK         0.0242 
     51 CB         32.9309   25.7161    6.1167 C.3       8 UNK        -0.2000 
     52 C          33.8025   28.0856    6.0070 C.2       8 UNK         0.4948 
     53 O          34.8806   28.1348    5.4168 O.2       8 UNK        -0.5275 
     54 N          33.4877   28.8562    7.0583 N.am      9 UNK        -0.4246 
     55 CA         34.3186   29.9433    7.5768 C.3       9 UNK         0.0261 
     56 CB         33.8169   30.3396    8.9751 C.3       9 UNK        -0.1959 
     57 C          34.3544   31.1732    6.6505 C.2       9 UNK         0.5033 
     58 O          35.3350   31.9175    6.6937 O.2       9 UNK        -0.5390 
     59 N          33.3021   31.3743    5.8417 N.am      10 UNK        -0.4215 
     60 CA         33.2371   32.4330    4.8342 C.3       10 UNK         0.0240 
     61 CB         31.7762   32.8360    4.5701 C.3       10 UNK        -0.1982 
     62 C          33.9337   31.9878    3.5422 C.2       10 UNK         0.4970 
     63 O          34.7596   32.7388    3.0227 O.2       10 UNK        -0.4916 
     64 N          33.6068   30.7743    3.0674 N.am      11 UNK        -0.4279 
     65 CA         34.2118   30.1347    1.8838 C.3       11 UNK         0.1003 
     66 C          33.9348   30.8851    0.5387 C.2       11 UNK         0.5709 
     67 N          32.8904   31.7020    0.4513 N.am      11 UNK        -0.7358 
     68 O          34.6524   30.7263   -0.4450 O.2       11 UNK        -0.4999 
     69 C69        35.7109   29.7914    2.1485 C.3       12 UNK        -0.0954 
     70 S70        36.4601   28.5429    1.0468 S.3       12 UNK        -0.2268 
     71 C71        35.8881   26.9648    1.7659 C.3       12 UNK         0.0203 
     72 H72        26.3559   24.2555    6.4976 H         1 UNK         0.0888 
     73 H73        27.6995   23.1272    6.7044 H         1 UNK         0.0888 
     74 H74        28.0070   24.7757    6.1533 H         1 UNK         0.0888 
     75 H75        28.3327   24.9548    3.9544 H         1 UNK         0.3017 
     76 H76        27.5805   22.7690    2.1073 H         1 UNK         0.0873 
     77 H77        28.9746   24.0717    0.4769 H         1 UNK         0.0745 
     78 H78        29.2748   25.2809    1.7071 H         1 UNK         0.0745 
     79 H79        31.0138   25.1939    3.4228 H         1 UNK         0.0705 
     80 H80        32.2724   23.9874    3.5162 H         1 UNK         0.0705 
     81 H81        34.1256   25.4574    3.1459 H         1 UNK         0.1334 
     82 H82        34.5343   27.5012   -0.6087 H         1 UNK         0.1417 
     83 H83        30.9659   25.3470    0.2465 H         1 UNK         0.1562 
     84 H84        31.2412   26.2747   -1.8987 H         1 UNK         0.0748 
     85 H85        32.8167   26.7994   -2.4187 H         1 UNK         0.0748 
     86 H86        30.8867   29.7263    0.4285 H         1 UNK         0.0940 
     87 H87        30.7875   28.0180    0.6461 H         1 UNK         0.0940 
     88 H88        28.8020   29.7744   -0.8721 H         1 UNK         0.0703 
     89 H89        29.1783   27.0022   -1.2102 H         1 UNK         0.3081 
     90 H90        26.7442   26.8418   -3.4917 H         1 UNK         0.0719 
     91 H91        28.6906   25.0865   -1.8859 H         1 UNK         0.0809 
     92 H92        28.0936   24.7611   -3.5049 H         1 UNK         0.0809 
     93 H93        29.1265   26.1463   -3.2344 H         1 UNK         0.0809 
     94 H94        26.0566   25.4517   -0.9666 H         1 UNK         0.2990 
     95 H95        23.0301   24.4061   -2.1787 H         1 UNK         0.0690 
     96 H96        23.5045   21.9701   -1.9434 H         1 UNK         0.0788 
     97 H97        25.2258   22.2634   -2.1989 H         1 UNK         0.0788 
     98 H98        24.0742   22.5665   -3.4918 H         1 UNK         0.0788 
     99 H99        24.7441   23.3724   -0.0587 H         1 UNK         0.2993 
    100 H100       24.2045   26.0039    2.1807 H         1 UNK         0.0949 
    101 H101       21.9955   24.8514    2.4482 H         1 UNK         0.0767 
    102 H102       22.7920   23.2869    2.3405 H         1 UNK         0.0767 
    103 H103       23.1310   24.3649    3.6952 H         1 UNK         0.0767 
    104 H104       25.2903   23.5432    2.8352 H         1 UNK         0.3013 
    105 H105       27.4278   27.2876    1.0386 H         1 UNK         0.3121 
    106 H106       26.3703   27.1518    2.9624 H         1 UNK         0.0774 
    107 H107       25.4966   29.1218    4.1698 H         1 UNK         0.0815 
    108 H108       26.4305   30.2091    3.1548 H         1 UNK         0.0815 
    109 H109       25.1601   29.2200    2.4515 H         1 UNK         0.0815 
    110 H110       27.9969   29.8812    4.4299 H         1 UNK         0.2987 
    111 H111       29.0664   28.2537    6.5160 H         1 UNK         0.0949 
    112 H112       29.5605   31.1881    5.7862 H         1 UNK         0.0806 
    113 H113       28.3672   30.5734    6.9261 H         1 UNK         0.0806 
    114 H114       30.0789   30.4284    7.2851 H         1 UNK         0.0806 
    115 H115       30.8010   26.9794    6.4172 H         1 UNK         0.3010 
    116 H116       32.8099   27.0490    4.4296 H         1 UNK         0.0829 
    117 H117       32.1873   25.0049    5.7585 H         1 UNK         0.0813 
    118 H118       33.9123   25.3231    5.8470 H         1 UNK         0.0813 
    119 H119       32.8763   25.7337    7.2060 H         1 UNK         0.0813 
    120 H120       32.5915   28.7160    7.5010 H         1 UNK         0.3038 
    121 H121       35.3421   29.5736    7.6721 H         1 UNK         0.0769 
    122 H122       33.8536   29.4960    9.6646 H         1 UNK         0.0811 
    123 H123       32.7911   30.7095    8.9485 H         1 UNK         0.0811 
    124 H124       34.4365   31.1302    9.4012 H         1 UNK         0.0811 
    125 H125       32.5657   30.6811    5.8126 H         1 UNK         0.3204 
    126 H126       33.7576   33.3162    5.2117 H         1 UNK         0.0748 
    127 H127       31.2801   33.1494    5.4888 H         1 UNK         0.0771 
    128 H128       31.7278   33.6753    3.8751 H         1 UNK         0.0771 
    129 H129       31.1942   32.0241    4.1340 H         1 UNK         0.0771 
    130 H130       32.8790   30.2439    3.5378 H         1 UNK         0.2980 
    131 H131       33.6752   29.1919    1.7863 H         1 UNK         0.0545 
    132 H132       32.7127   32.1773   -0.4188 H         1 UNK         0.3459 
    133 H133       32.2895   31.8538    1.2444 H         1 UNK         0.3459 
    134 H134       36.3173   30.6958    2.0816 H         1 UNK         0.0616 
    135 H135       35.8339   29.4340    3.1719 H         1 UNK         0.0616 
    136 H136       36.5922   26.1848    1.4743 H         1 UNK         0.0634 
    137 H137       35.9385   27.0342    2.8539 H         1 UNK         0.0634 
@<TRIPOS>BOND
     1    1    2 1    
     2    1   72 1    
     3    1   73 1    
     4    1   74 1    
     5    2    3 2    
     6    2    4 am   BACKBONE|DICT|INTERRES
     7    4    5 1    
     8    4   75 1    
     9    5    6 1    
    10    5   35 1    
    11    5   76 1    
    12    6    7 1    
    13    6   77 1    
    14    6   78 1    
    15    7    8 1    
    16    8    9 1    
    17    8   79 1    
    18    8   80 1    
    19    9   10 ar   
    20    9   14 ar   
    21   10   11 ar   
    22   10   81 1    
    23   11   12 ar   
    24   11   71 1    
    25   12   13 ar   
    26   12   82 1    
    27   13   14 ar   
    28   13   15 1    
    29   14   83 1    
    30   15   16 1    
    31   15   84 1    
    32   15   85 1    
    33   16   17 1    
    34   17   18 1    
    35   17   86 1    
    36   17   87 1    
    37   18   19 1    
    38   18   37 1    
    39   18   88 1    
    40   19   20 am   BACKBONE|DICT|INTERRES
    41   19   89 1    
    42   20   21 2    
    43   20   22 1    
    44   22   23 1    
    45   22   24 1    
    46   22   90 1    
    47   23   91 1    
    48   23   92 1    
    49   23   93 1    
    50   24   25 am   BACKBONE|DICT|INTERRES
    51   24   94 1    
    52   25   26 2    
    53   25   27 1    
    54   27   28 1    
    55   27   29 1    
    56   27   95 1    
    57   28   96 1    
    58   28   97 1    
    59   28   98 1    
    60   29   30 am   BACKBONE|DICT|INTERRES
    61   29   99 1    
    62   30   31 2    
    63   30   32 1    
    64   32   33 1    
    65   32   34 1    
    66   32  100 1    
    67   33  101 1    
    68   33  102 1    
    69   33  103 1    
    70   34   35 am   BACKBONE|DICT|INTERRES
    71   34  104 1    
    72   35   36 2    
    73   37   38 2    
    74   37   39 am   BACKBONE|DICT|INTERRES
    75   39   40 1    
    76   39  105 1    
    77   40   41 1    
    78   40   42 1    
    79   40  106 1    
    80   41  107 1    
    81   41  108 1    
    82   41  109 1    
    83   42   43 2    
    84   42   44 am   BACKBONE|DICT|INTERRES
    85   44   45 1    
    86   44  110 1    
    87   45   46 1    
    88   45   47 1    
    89   45  111 1    
    90   46  112 1    
    91   46  113 1    
    92   46  114 1    
    93   47   48 2    
    94   47   49 am   BACKBONE|DICT|INTERRES
    95   49   50 1    
    96   49  115 1    
    97   50   51 1    
    98   50   52 1    
    99   50  116 1    
   100   51  117 1    
   101   51  118 1    
   102   51  119 1    
   103   52   53 2    
   104   52   54 am   BACKBONE|DICT|INTERRES
   105   54   55 1    
   106   54  120 1    
   107   55   56 1    
   108   55   57 1    
   109   55  121 1    
   110   56  122 1    
   111   56  123 1    
   112   56  124 1    
   113   57   58 2    
   114   57   59 am   BACKBONE|DICT|INTERRES
   115   59   60 1    
   116   59  125 1    
   117   60   61 1    
   118   60   62 1    
   119   60  126 1    
   120   61  127 1    
   121   61  128 1    
   122   61  129 1    
   123   62   63 2    
   124   62   64 am   BACKBONE|DICT|INTERRES
   125   64   65 1    
   126   64  130 1    
   127   65   66 1    
   128   65   69 1    
   129   65  131 1    
   130   66   67 am   BACKBONE|DICT|INTERRES
   131   66   68 2    
   132   67  132 1    
   133   67  133 1    
   134   69   70 1    
   135   69  134 1    
   136   69  135 1    
   137   70   71 1    
   138   71  136 1    
   139   71  137 1    
@<TRIPOS>SUBSTRUCTURE
     1 UNK         1 GROUP             0       ****    0 ROOT    
