@<TRIPOS>MOLECULE
3R136
137   139    1
SMALL
USER_CHARGES


@<TRIPOS>ATOM
      1 CA         28.0141   19.5678    1.5621 C.3       0 UNK        -0.1979 
      2 C          28.2610   20.0965    0.1568 C.2       0 UNK         0.4864 
      3 O          28.8720   19.4056   -0.6598 O.2       0 UNK        -0.5359 
      4 N          27.7947   21.3155   -0.1270 N.am      1 UNK        -0.4318 
      5 CA         27.9380   22.0133   -1.4031 C.3       1 UNK         0.0824 
      6 C6         29.3764   22.5510   -1.6507 C.3       12 UNK        -0.0944 
      7 S7         30.0014   23.6535   -0.3327 S.3       12 UNK        -0.2672 
      8 C8         31.2649   22.5835    0.4179 C.3       12 UNK         0.0333 
      9 C9         31.7681   23.1679    1.7258 C.ar      12 UNK        -0.0807 
     10 C10        32.9055   23.9785    1.7508 C.ar      12 UNK        -0.0894 
     11 C11        33.3696   24.5123    2.9573 C.ar      12 UNK        -0.0804 
     12 C12        32.6829   24.2368    4.1442 C.ar      12 UNK        -0.0824 
     13 C13        31.5459   23.4223    4.1294 C.ar      12 UNK        -0.0762 
     14 C14        31.0976   22.8871    2.9180 C.ar      12 UNK        -0.0782 
     15 C15        30.8103   23.0937    5.4198 C.3       12 UNK         0.0230 
     16 S16        29.0814   23.6597    5.3768 S.3       12 UNK        -0.2608 
     17 C17        29.2607   25.4603    5.6245 C.3       12 UNK        -0.0989 
     18 CA         29.2568   26.3125    4.3185 C.3       5 UNK         0.0716 
     19 N          28.2029   25.9396    3.3633 N.am      5 UNK        -0.4135 
     20 C          26.8765   25.9755    3.5640 C.2       4 UNK         0.5031 
     21 O          26.3514   26.2727    4.6384 O.2       4 UNK        -0.5229 
     22 CA         25.9903   25.6679    2.3385 C.3       4 UNK         0.0329 
     23 CB         24.5884   26.3027    2.4550 C.3       4 UNK        -0.2001 
     24 N          26.5974   26.0302    1.0488 N.am      4 UNK        -0.4303 
     25 C          27.0534   27.2380    0.6723 C.2       3 UNK         0.5044 
     26 O          27.0979   28.2161    1.4215 O.2       3 UNK        -0.5152 
     27 CA         27.5941   27.3876   -0.7624 C.3       3 UNK         0.0319 
     28 CB         29.1258   27.5295   -0.7424 C.3       3 UNK        -0.2001 
     29 N          27.2200   26.2865   -1.6528 N.am      3 UNK        -0.4354 
     30 C          25.9861   26.0871   -2.1411 C.2       2 UNK         0.4964 
     31 O          25.0502   26.8681   -1.9676 O.2       2 UNK        -0.5047 
     32 CA         25.7384   24.7902   -2.9370 C.3       2 UNK         0.0288 
     33 CB         25.7374   25.0808   -4.4470 C.3       2 UNK        -0.2113 
     34 N          26.6879   23.7045   -2.6586 N.am      2 UNK        -0.4145 
     35 C          26.8777   23.1257   -1.4637 C.2       1 UNK         0.5006 
     36 O          26.2823   23.4651   -0.4351 O.2       1 UNK        -0.5103 
     37 C          29.2609   27.8267    4.6591 C.2       5 UNK         0.5055 
     38 O          29.9429   28.2158    5.6073 O.2       5 UNK        -0.5220 
     39 N          28.4947   28.6529    3.9298 N.am      6 UNK        -0.4450 
     40 CA         28.1776   30.0309    4.3055 C.3       6 UNK         0.0367 
     41 CB         26.6657   30.1431    4.5660 C.3       6 UNK        -0.1929 
     42 C          28.6101   31.0400    3.2388 C.2       6 UNK         0.5070 
     43 O          29.2677   32.0249    3.5800 O.2       6 UNK        -0.5237 
     44 N          28.2273   30.7950    1.9761 N.am      7 UNK        -0.4739 
     45 CA         28.3439   31.7562    0.8701 C.3       7 UNK         0.0276 
     46 CB         27.6237   31.2085   -0.3706 C.3       7 UNK        -0.1927 
     47 C          29.7867   32.1489    0.5167 C.2       7 UNK         0.5013 
     48 O          30.0168   33.2740    0.0734 O.2       7 UNK        -0.5193 
     49 N          30.7393   31.2425    0.7654 N.am      8 UNK        -0.4253 
     50 CA         32.1788   31.4518    0.5952 C.3       8 UNK         0.0242 
     51 CB         32.8448   30.0827    0.3602 C.3       8 UNK        -0.2000 
     52 C          32.8015   32.2140    1.7849 C.2       8 UNK         0.4948 
     53 O          33.8614   31.8178    2.2697 O.2       8 UNK        -0.5275 
     54 N          32.1202   33.2670    2.2642 N.am      9 UNK        -0.4246 
     55 CA         32.4618   34.1043    3.4240 C.3       9 UNK         0.0261 
     56 CB         33.6568   35.0208    3.0871 C.3       9 UNK        -0.1959 
     57 C          32.6850   33.2759    4.7065 C.2       9 UNK         0.5033 
     58 O          33.7245   33.4073    5.3556 O.2       9 UNK        -0.5390 
     59 N          31.7236   32.3883    5.0032 N.am      10 UNK        -0.4215 
     60 CA         31.7342   31.3742    6.0693 C.3       10 UNK         0.0240 
     61 CB         31.8658   32.0172    7.4667 C.3       10 UNK        -0.1982 
     62 C          32.7412   30.2223    5.8569 C.2       10 UNK         0.4970 
     63 O          32.8584   29.3674    6.7357 O.2       10 UNK        -0.4916 
     64 N          33.4253   30.1939    4.7039 N.am      11 UNK        -0.4279 
     65 CA         34.3422   29.1370    4.2547 C.3       11 UNK         0.1003 
     66 C          35.5985   28.9176    5.1533 C.2       11 UNK         0.5709 
     67 N          36.0296   29.9125    5.9205 N.am      11 UNK        -0.7358 
     68 O          36.2090   27.8512    5.1431 O.2       11 UNK        -0.4999 
     69 C69        33.5768   27.8344    3.8767 C.3       12 UNK        -0.0954 
     70 S70        34.2753   27.0547    2.3831 S.3       12 UNK        -0.2268 
     71 C71        34.6241   25.3715    2.9688 C.3       12 UNK         0.0203 
     72 H72        28.9625   19.3451    2.0503 H         1 UNK         0.0888 
     73 H73        27.4768   20.2876    2.1795 H         1 UNK         0.0888 
     74 H74        27.4272   18.6506    1.5208 H         1 UNK         0.0888 
     75 H75        27.2566   21.8404    0.5521 H         1 UNK         0.3017 
     76 H76        27.6907   21.3051   -2.1970 H         1 UNK         0.0873 
     77 H77        30.0602   21.7093   -1.7705 H         1 UNK         0.0745 
     78 H78        29.4309   23.0902   -2.5978 H         1 UNK         0.0745 
     79 H79        32.0900   22.4511   -0.2837 H         1 UNK         0.0705 
     80 H80        30.8488   21.5910    0.5958 H         1 UNK         0.0705 
     81 H81        33.4306   24.1970    0.8307 H         1 UNK         0.1334 
     82 H82        33.0398   24.6480    5.0786 H         1 UNK         0.1417 
     83 H83        30.2181   22.2574    2.9037 H         1 UNK         0.1562 
     84 H84        31.3162   23.5195    6.2877 H         1 UNK         0.0748 
     85 H85        30.8199   22.0121    5.5616 H         1 UNK         0.0748 
     86 H86        30.1737   25.6471    6.1931 H         1 UNK         0.0940 
     87 H87        28.4432   25.7722    6.2774 H         1 UNK         0.0940 
     88 H88        30.1988   26.1239    3.8012 H         1 UNK         0.0703 
     89 H89        28.5273   25.6671    2.4469 H         1 UNK         0.3081 
     90 H90        25.8645   24.5843    2.3213 H         1 UNK         0.0719 
     91 H91        24.6443   27.3891    2.5343 H         1 UNK         0.0809 
     92 H92        23.9713   26.0609    1.5895 H         1 UNK         0.0809 
     93 H93        24.0624   25.9376    3.3379 H         1 UNK         0.0809 
     94 H94        26.6166   25.2778    0.3668 H         1 UNK         0.2990 
     95 H95        27.1673   28.3050   -1.1705 H         1 UNK         0.0690 
     96 H96        29.5196   27.7207   -1.7407 H         1 UNK         0.0788 
     97 H97        29.6113   26.6332   -0.3560 H         1 UNK         0.0788 
     98 H98        29.4372   28.3616   -0.1097 H         1 UNK         0.0788 
     99 H99        27.9336   25.6004   -1.8520 H         1 UNK         0.2993 
    100 H100       24.7451   24.4333   -2.6562 H         1 UNK         0.0949 
    101 H101       25.4591   24.1974   -5.0222 H         1 UNK         0.0767 
    102 H102       25.0188   25.8639   -4.6944 H         1 UNK         0.0767 
    103 H103       26.7159   25.4153   -4.7944 H         1 UNK         0.0767 
    104 H104       27.2218   23.3694   -3.4480 H         1 UNK         0.3013 
    105 H105       27.9895   28.2824    3.1297 H         1 UNK         0.3121 
    106 H106       28.6831   30.3052    5.2321 H         1 UNK         0.0774 
    107 H107       26.3883   31.1628    4.8368 H         1 UNK         0.0815 
    108 H108       26.0790   29.8644    3.6894 H         1 UNK         0.0815 
    109 H109       26.3599   29.4946    5.3873 H         1 UNK         0.0815 
    110 H110       27.7141   29.9383    1.7795 H         1 UNK         0.2987 
    111 H111       27.8307   32.6679    1.1839 H         1 UNK         0.0949 
    112 H112       27.5577   31.9713   -1.1476 H         1 UNK         0.0806 
    113 H113       28.1561   30.3608   -0.7991 H         1 UNK         0.0806 
    114 H114       26.6064   30.8914   -0.1399 H         1 UNK         0.0806 
    115 H115       30.4524   30.3666    1.1765 H         1 UNK         0.3010 
    116 H116       32.3456   32.0619   -0.2952 H         1 UNK         0.0829 
    117 H117       32.4166   29.5744   -0.5039 H         1 UNK         0.0813 
    118 H118       33.9139   30.1904    0.1719 H         1 UNK         0.0813 
    119 H119       32.7306   29.4281    1.2247 H         1 UNK         0.0813 
    120 H120       31.2578   33.5046    1.7865 H         1 UNK         0.3038 
    121 H121       31.5969   34.7413    3.6156 H         1 UNK         0.0769 
    122 H122       33.8676   35.7066    3.9086 H         1 UNK         0.0811 
    123 H123       33.4555   35.6265    2.2036 H         1 UNK         0.0811 
    124 H124       34.5657   34.4475    2.9003 H         1 UNK         0.0811 
    125 H125       30.9028   32.3576    4.3976 H         1 UNK         0.3204 
    126 H126       30.7525   30.9042    6.0288 H         1 UNK         0.0748 
    127 H127       31.6920   31.2807    8.2521 H         1 UNK         0.0771 
    128 H128       32.8590   32.4347    7.6328 H         1 UNK         0.0771 
    129 H129       31.1366   32.8152    7.6068 H         1 UNK         0.0771 
    130 H130       33.3327   30.9670    4.0553 H         1 UNK         0.2980 
    131 H131       34.7590   29.5479    3.3351 H         1 UNK         0.0545 
    132 H132       35.5424   30.7950    5.9313 H         1 UNK         0.3459 
    133 H133       36.8451   29.7755    6.4962 H         1 UNK         0.3459 
    134 H134       33.5480   27.1353    4.7138 H         1 UNK         0.0616 
    135 H135       32.5335   28.0546    3.6447 H         1 UNK         0.0616 
    136 H136       35.3740   24.9233    2.3154 H         1 UNK         0.0634 
    137 H137       35.0710   25.4076    3.9637 H         1 UNK         0.0634 
@<TRIPOS>BOND
     1    1    2 1    
     2    1   72 1    
     3    1   73 1    
     4    1   74 1    
     5    2    3 2    
     6    2    4 am   BACKBONE|DICT|INTERRES
     7    4    5 1    
     8    4   75 1    
     9    5    6 1    
    10    5   35 1    
    11    5   76 1    
    12    6    7 1    
    13    6   77 1    
    14    6   78 1    
    15    7    8 1    
    16    8    9 1    
    17    8   79 1    
    18    8   80 1    
    19    9   10 ar   
    20    9   14 ar   
    21   10   11 ar   
    22   10   81 1    
    23   11   12 ar   
    24   11   71 1    
    25   12   13 ar   
    26   12   82 1    
    27   13   14 ar   
    28   13   15 1    
    29   14   83 1    
    30   15   16 1    
    31   15   84 1    
    32   15   85 1    
    33   16   17 1    
    34   17   18 1    
    35   17   86 1    
    36   17   87 1    
    37   18   19 1    
    38   18   37 1    
    39   18   88 1    
    40   19   20 am   BACKBONE|DICT|INTERRES
    41   19   89 1    
    42   20   21 2    
    43   20   22 1    
    44   22   23 1    
    45   22   24 1    
    46   22   90 1    
    47   23   91 1    
    48   23   92 1    
    49   23   93 1    
    50   24   25 am   BACKBONE|DICT|INTERRES
    51   24   94 1    
    52   25   26 2    
    53   25   27 1    
    54   27   28 1    
    55   27   29 1    
    56   27   95 1    
    57   28   96 1    
    58   28   97 1    
    59   28   98 1    
    60   29   30 am   BACKBONE|DICT|INTERRES
    61   29   99 1    
    62   30   31 2    
    63   30   32 1    
    64   32   33 1    
    65   32   34 1    
    66   32  100 1    
    67   33  101 1    
    68   33  102 1    
    69   33  103 1    
    70   34   35 am   BACKBONE|DICT|INTERRES
    71   34  104 1    
    72   35   36 2    
    73   37   38 2    
    74   37   39 am   BACKBONE|DICT|INTERRES
    75   39   40 1    
    76   39  105 1    
    77   40   41 1    
    78   40   42 1    
    79   40  106 1    
    80   41  107 1    
    81   41  108 1    
    82   41  109 1    
    83   42   43 2    
    84   42   44 am   BACKBONE|DICT|INTERRES
    85   44   45 1    
    86   44  110 1    
    87   45   46 1    
    88   45   47 1    
    89   45  111 1    
    90   46  112 1    
    91   46  113 1    
    92   46  114 1    
    93   47   48 2    
    94   47   49 am   BACKBONE|DICT|INTERRES
    95   49   50 1    
    96   49  115 1    
    97   50   51 1    
    98   50   52 1    
    99   50  116 1    
   100   51  117 1    
   101   51  118 1    
   102   51  119 1    
   103   52   53 2    
   104   52   54 am   BACKBONE|DICT|INTERRES
   105   54   55 1    
   106   54  120 1    
   107   55   56 1    
   108   55   57 1    
   109   55  121 1    
   110   56  122 1    
   111   56  123 1    
   112   56  124 1    
   113   57   58 2    
   114   57   59 am   BACKBONE|DICT|INTERRES
   115   59   60 1    
   116   59  125 1    
   117   60   61 1    
   118   60   62 1    
   119   60  126 1    
   120   61  127 1    
   121   61  128 1    
   122   61  129 1    
   123   62   63 2    
   124   62   64 am   BACKBONE|DICT|INTERRES
   125   64   65 1    
   126   64  130 1    
   127   65   66 1    
   128   65   69 1    
   129   65  131 1    
   130   66   67 am   BACKBONE|DICT|INTERRES
   131   66   68 2    
   132   67  132 1    
   133   67  133 1    
   134   69   70 1    
   135   69  134 1    
   136   69  135 1    
   137   70   71 1    
   138   71  136 1    
   139   71  137 1    
@<TRIPOS>SUBSTRUCTURE
     1 UNK         1 GROUP             0       ****    0 ROOT    
