@<TRIPOS>MOLECULE
3R136
137   139    1
SMALL
USER_CHARGES


@<TRIPOS>ATOM
      1 CA         29.2216   20.8947    6.7227 C.3       0 UNK        -0.1979 
      2 C          29.0968   21.1305    5.2245 C.2       0 UNK         0.4864 
      3 O          29.3497   20.2172    4.4377 O.2       0 UNK        -0.5359 
      4 N          28.7097   22.3469    4.8278 N.am      1 UNK        -0.4318 
      5 CA         28.5302   22.7695    3.4429 C.3       1 UNK         0.0824 
      6 C6         29.8742   23.1423    2.7620 C.3       12 UNK        -0.0944 
      7 S7         29.7550   23.2083    0.9426 S.3       12 UNK        -0.2672 
      8 C8         29.6894   25.0052    0.6486 C.3       12 UNK         0.0333 
      9 C9         31.0451   25.6147    0.3120 C.ar      12 UNK        -0.0807 
     10 C10        32.0994   25.5800    1.2272 C.ar      12 UNK        -0.0894 
     11 C11        33.3253   26.1763    0.9233 C.ar      12 UNK        -0.0804 
     12 C12        33.4923   26.8220   -0.3064 C.ar      12 UNK        -0.0824 
     13 C13        32.4463   26.8753   -1.2358 C.ar      12 UNK        -0.0762 
     14 C14        31.2270   26.2625   -0.9127 C.ar      12 UNK        -0.0782 
     15 C15        32.6628   27.6401   -2.5464 C.3       12 UNK         0.0230 
     16 S16        31.4443   27.2779   -3.8634 S.3       12 UNK        -0.2608 
     17 C17        31.0008   28.9424   -4.4858 C.3       12 UNK        -0.0989 
     18 CA         29.7726   29.5959   -3.7908 C.3       5 UNK         0.0716 
     19 N          28.6707   28.6409   -3.5854 N.am      5 UNK        -0.4135 
     20 C          27.4409   28.9512   -3.1482 C.2       4 UNK         0.5031 
     21 O          27.0330   30.1079   -3.0301 O.2       4 UNK        -0.5229 
     22 CA         26.5268   27.7964   -2.7093 C.3       4 UNK         0.0329 
     23 CB         27.0678   26.3884   -3.0359 C.3       4 UNK        -0.2001 
     24 N          26.3532   27.9176   -1.2643 N.am      4 UNK        -0.4303 
     25 C          25.1955   27.9251   -0.5984 C.2       3 UNK         0.5044 
     26 O          24.0905   27.7458   -1.1157 O.2       3 UNK        -0.5152 
     27 CA         25.2977   28.1947    0.9166 C.3       3 UNK         0.0319 
     28 CB         24.3372   29.3164    1.3476 C.3       3 UNK        -0.2001 
     29 N          25.0579   27.0114    1.7478 N.am      3 UNK        -0.4354 
     30 C          25.7109   25.8441    1.6630 C.2       2 UNK         0.4964 
     31 O          26.5625   25.5842    0.8133 O.2       2 UNK        -0.5047 
     32 CA         25.3285   24.7772    2.7022 C.3       2 UNK         0.0288 
     33 CB         24.0133   24.0839    2.3073 C.3       2 UNK        -0.2113 
     34 N          26.3749   23.7611    2.8377 N.am      2 UNK        -0.4145 
     35 C          27.5378   23.9412    3.4770 C.2       1 UNK         0.5006 
     36 O          27.8381   24.9639    4.1028 O.2       1 UNK        -0.5103 
     37 C          30.1793   30.3166   -2.4839 C.2       5 UNK         0.5055 
     38 O          30.5918   31.4765   -2.5221 O.2       5 UNK        -0.5220 
     39 N          30.0232   29.6139   -1.3604 N.am      6 UNK        -0.4450 
     40 CA         30.1311   30.0648    0.0174 C.3       6 UNK         0.0367 
     41 CB         31.6098   30.1464    0.4439 C.3       6 UNK        -0.1929 
     42 C          29.3381   29.0490    0.8543 C.2       6 UNK         0.5070 
     43 O          28.7126   28.1486    0.2861 O.2       6 UNK        -0.5237 
     44 N          29.3849   29.2005    2.1773 N.am      7 UNK        -0.4739 
     45 CA         28.9307   28.2157    3.1568 C.3       7 UNK         0.0276 
     46 CB         27.8162   28.8358    4.0153 C.3       7 UNK        -0.1927 
     47 C          30.1369   27.8548    4.0320 C.2       7 UNK         0.5013 
     48 O          31.0689   28.6603    4.1244 O.2       7 UNK        -0.5193 
     49 N          30.0838   26.7008    4.7126 N.am      8 UNK        -0.4253 
     50 CA         31.1454   26.2125    5.6102 C.3       8 UNK         0.0242 
     51 CB         30.7413   24.8600    6.2174 C.3       8 UNK        -0.2000 
     52 C          31.5466   27.1956    6.7270 C.2       8 UNK         0.4948 
     53 O          32.7222   27.2640    7.0861 O.2       8 UNK        -0.5275 
     54 N          30.5679   27.9585    7.2314 N.am      9 UNK        -0.4246 
     55 CA         30.7666   29.0185    8.2211 C.3       9 UNK         0.0261 
     56 CB         29.4139   29.3460    8.8755 C.3       9 UNK        -0.1959 
     57 C          31.4031   30.2975    7.6420 C.2       9 UNK         0.5033 
     58 O          31.9216   31.1006    8.4192 O.2       9 UNK        -0.5390 
     59 N          31.3376   30.4853    6.3162 N.am      10 UNK        -0.4215 
     60 CA         31.8464   31.6660    5.6183 C.3       10 UNK         0.0240 
     61 CB         30.8634   32.0755    4.5081 C.3       10 UNK        -0.1982 
     62 C          33.2472   31.4243    5.0407 C.2       10 UNK         0.4970 
     63 O          34.0935   32.3122    5.1531 O.2       10 UNK        -0.4916 
     64 N          33.4746   30.2499    4.4329 N.am      11 UNK        -0.4279 
     65 CA         34.7717   29.8801    3.8408 C.3       11 UNK         0.1003 
     66 C          35.8960   29.5558    4.8692 C.2       11 UNK         0.5709 
     67 N          35.5812   29.2731    6.1282 N.am      11 UNK        -0.7358 
     68 O          37.0738   29.5787    4.5191 O.2       11 UNK        -0.4999 
     69 C69        34.6286   28.7903    2.7454 C.3       12 UNK        -0.0954 
     70 S70        34.1601   27.1482    3.3823 S.3       12 UNK        -0.2268 
     71 C71        34.4659   26.1000    1.9274 C.3       12 UNK         0.0203 
     72 H72        28.9881   21.7905    7.2979 H         1 UNK         0.0888 
     73 H73        28.5417   20.1030    7.0362 H         1 UNK         0.0888 
     74 H74        30.2380   20.5897    6.9704 H         1 UNK         0.0888 
     75 H75        28.4763   23.0551    5.5115 H         1 UNK         0.3017 
     76 H76        28.0761   21.9409    2.8941 H         1 UNK         0.0873 
     77 H77        30.2642   24.0805    3.1555 H         1 UNK         0.0745 
     78 H78        30.6290   22.3899    2.9949 H         1 UNK         0.0745 
     79 H79        28.9861   25.1825   -0.1661 H         1 UNK         0.0705 
     80 H80        29.2701   25.5127    1.5152 H         1 UNK         0.0705 
     81 H81        31.9741   25.0934    2.1826 H         1 UNK         0.1334 
     82 H82        34.4380   27.2934   -0.5372 H         1 UNK         0.1417 
     83 H83        30.3964   26.3006   -1.6006 H         1 UNK         0.1562 
     84 H84        33.6554   27.4138   -2.9386 H         1 UNK         0.0748 
     85 H85        32.6616   28.7063   -2.3194 H         1 UNK         0.0748 
     86 H86        30.7734   28.8252   -5.5466 H         1 UNK         0.0940 
     87 H87        31.8747   29.5972   -4.4590 H         1 UNK         0.0940 
     88 H88        29.3951   30.3740   -4.4577 H         1 UNK         0.0703 
     89 H89        28.9206   27.6671   -3.6824 H         1 UNK         0.3081 
     90 H90        25.5724   27.9326   -3.2219 H         1 UNK         0.0719 
     91 H91        27.2404   26.2651   -4.1059 H         1 UNK         0.0809 
     92 H92        26.3490   25.6237   -2.7402 H         1 UNK         0.0809 
     93 H93        27.9993   26.1716   -2.5116 H         1 UNK         0.0809 
     94 H94        27.2089   28.0317   -0.7212 H         1 UNK         0.2990 
     95 H95        26.3086   28.5369    1.1372 H         1 UNK         0.0690 
     96 H96        24.4878   29.5910    2.3918 H         1 UNK         0.0788 
     97 H97        23.2935   29.0248    1.2230 H         1 UNK         0.0788 
     98 H98        24.4973   30.2159    0.7515 H         1 UNK         0.0788 
     99 H99        24.3422   27.1078    2.4530 H         1 UNK         0.2993 
    100 H100       25.1958   25.2680    3.6692 H         1 UNK         0.0949 
    101 H101       23.7214   23.3367    3.0457 H         1 UNK         0.0767 
    102 H102       23.1948   24.8016    2.2359 H         1 UNK         0.0767 
    103 H103       24.0946   23.5865    1.3397 H         1 UNK         0.0767 
    104 H104       26.2318   22.9052    2.3220 H         1 UNK         0.3013 
    105 H105       29.6369   28.6798   -1.4204 H         1 UNK         0.3121 
    106 H106       29.6563   31.0431    0.1131 H         1 UNK         0.0774 
    107 H107       31.7156   30.5796    1.4386 H         1 UNK         0.0815 
    108 H108       32.0679   29.1585    0.4696 H         1 UNK         0.0815 
    109 H109       32.1910   30.7670   -0.2379 H         1 UNK         0.0815 
    110 H110       29.9939   29.9104    2.5585 H         1 UNK         0.2987 
    111 H111       28.5541   27.3150    2.6694 H         1 UNK         0.0949 
    112 H112       28.1698   29.7012    4.5778 H         1 UNK         0.0806 
    113 H113       26.9772   29.1603    3.4007 H         1 UNK         0.0806 
    114 H114       27.4276   28.1117    4.7326 H         1 UNK         0.0806 
    115 H115       29.2704   26.1007    4.5899 H         1 UNK         0.3010 
    116 H116       32.0340   26.0502    4.9994 H         1 UNK         0.0829 
    117 H117       31.4597   24.5364    6.9723 H         1 UNK         0.0813 
    118 H118       29.7625   24.9053    6.6959 H         1 UNK         0.0813 
    119 H119       30.7181   24.0821    5.4578 H         1 UNK         0.0813 
    120 H120       29.6291   27.8234    6.8855 H         1 UNK         0.3038 
    121 H121       31.4381   28.6433    8.9966 H         1 UNK         0.0769 
    122 H122       28.6932   29.7225    8.1484 H         1 UNK         0.0811 
    123 H123       29.5278   30.1100    9.6460 H         1 UNK         0.0811 
    124 H124       28.9815   28.4680    9.3556 H         1 UNK         0.0811 
    125 H125       30.9826   29.7378    5.7284 H         1 UNK         0.3204 
    126 H126       31.9164   32.5033    6.3162 H         1 UNK         0.0748 
    127 H127       29.8719   32.2790    4.9130 H         1 UNK         0.0771 
    128 H128       31.2009   32.9834    4.0064 H         1 UNK         0.0771 
    129 H129       30.7621   31.3036    3.7469 H         1 UNK         0.0771 
    130 H130       32.7287   29.5636    4.3563 H         1 UNK         0.2980 
    131 H131       35.1264   30.7696    3.3161 H         1 UNK         0.0545 
    132 H132       34.6149   29.2025    6.4066 H         1 UNK         0.3459 
    133 H133       36.3147   29.0689    6.7877 H         1 UNK         0.3459 
    134 H134       33.8843   29.0973    2.0112 H         1 UNK         0.0616 
    135 H135       35.5667   28.6951    2.1959 H         1 UNK         0.0616 
    136 H136       34.5747   25.0673    2.2614 H         1 UNK         0.0634 
    137 H137       35.4168   26.3724    1.4672 H         1 UNK         0.0634 
@<TRIPOS>BOND
     1    1    2 1    
     2    1   72 1    
     3    1   73 1    
     4    1   74 1    
     5    2    3 2    
     6    2    4 am   BACKBONE|DICT|INTERRES
     7    4    5 1    
     8    4   75 1    
     9    5    6 1    
    10    5   35 1    
    11    5   76 1    
    12    6    7 1    
    13    6   77 1    
    14    6   78 1    
    15    7    8 1    
    16    8    9 1    
    17    8   79 1    
    18    8   80 1    
    19    9   10 ar   
    20    9   14 ar   
    21   10   11 ar   
    22   10   81 1    
    23   11   12 ar   
    24   11   71 1    
    25   12   13 ar   
    26   12   82 1    
    27   13   14 ar   
    28   13   15 1    
    29   14   83 1    
    30   15   16 1    
    31   15   84 1    
    32   15   85 1    
    33   16   17 1    
    34   17   18 1    
    35   17   86 1    
    36   17   87 1    
    37   18   19 1    
    38   18   37 1    
    39   18   88 1    
    40   19   20 am   BACKBONE|DICT|INTERRES
    41   19   89 1    
    42   20   21 2    
    43   20   22 1    
    44   22   23 1    
    45   22   24 1    
    46   22   90 1    
    47   23   91 1    
    48   23   92 1    
    49   23   93 1    
    50   24   25 am   BACKBONE|DICT|INTERRES
    51   24   94 1    
    52   25   26 2    
    53   25   27 1    
    54   27   28 1    
    55   27   29 1    
    56   27   95 1    
    57   28   96 1    
    58   28   97 1    
    59   28   98 1    
    60   29   30 am   BACKBONE|DICT|INTERRES
    61   29   99 1    
    62   30   31 2    
    63   30   32 1    
    64   32   33 1    
    65   32   34 1    
    66   32  100 1    
    67   33  101 1    
    68   33  102 1    
    69   33  103 1    
    70   34   35 am   BACKBONE|DICT|INTERRES
    71   34  104 1    
    72   35   36 2    
    73   37   38 2    
    74   37   39 am   BACKBONE|DICT|INTERRES
    75   39   40 1    
    76   39  105 1    
    77   40   41 1    
    78   40   42 1    
    79   40  106 1    
    80   41  107 1    
    81   41  108 1    
    82   41  109 1    
    83   42   43 2    
    84   42   44 am   BACKBONE|DICT|INTERRES
    85   44   45 1    
    86   44  110 1    
    87   45   46 1    
    88   45   47 1    
    89   45  111 1    
    90   46  112 1    
    91   46  113 1    
    92   46  114 1    
    93   47   48 2    
    94   47   49 am   BACKBONE|DICT|INTERRES
    95   49   50 1    
    96   49  115 1    
    97   50   51 1    
    98   50   52 1    
    99   50  116 1    
   100   51  117 1    
   101   51  118 1    
   102   51  119 1    
   103   52   53 2    
   104   52   54 am   BACKBONE|DICT|INTERRES
   105   54   55 1    
   106   54  120 1    
   107   55   56 1    
   108   55   57 1    
   109   55  121 1    
   110   56  122 1    
   111   56  123 1    
   112   56  124 1    
   113   57   58 2    
   114   57   59 am   BACKBONE|DICT|INTERRES
   115   59   60 1    
   116   59  125 1    
   117   60   61 1    
   118   60   62 1    
   119   60  126 1    
   120   61  127 1    
   121   61  128 1    
   122   61  129 1    
   123   62   63 2    
   124   62   64 am   BACKBONE|DICT|INTERRES
   125   64   65 1    
   126   64  130 1    
   127   65   66 1    
   128   65   69 1    
   129   65  131 1    
   130   66   67 am   BACKBONE|DICT|INTERRES
   131   66   68 2    
   132   67  132 1    
   133   67  133 1    
   134   69   70 1    
   135   69  134 1    
   136   69  135 1    
   137   70   71 1    
   138   71  136 1    
   139   71  137 1    
@<TRIPOS>SUBSTRUCTURE
     1 UNK         1 GROUP             0       ****    0 ROOT    
