@<TRIPOS>MOLECULE
3R136
137   139    1
SMALL
USER_CHARGES


@<TRIPOS>ATOM
      1 CA         32.2592   24.2020   -5.1252 C.3       0 UNK        -0.1979 
      2 C          31.5391   24.7858   -3.9185 C.2       0 UNK         0.4864 
      3 O          31.4887   26.0073   -3.7695 O.2       0 UNK        -0.5359 
      4 N          30.9892   23.9228   -3.0545 N.am      1 UNK        -0.4318 
      5 CA         30.2072   24.3046   -1.8763 C.3       1 UNK         0.0824 
      6 C6         30.0611   23.1103   -0.9007 C.3       12 UNK        -0.0944 
      7 S7         29.5825   23.6472    0.7725 S.3       12 UNK        -0.2672 
      8 C8         31.0483   23.1797    1.7473 C.3       12 UNK         0.0333 
      9 C9         30.9501   23.7122    3.1693 C.ar      12 UNK        -0.0807 
     10 C10        31.9381   24.5560    3.6818 C.ar      12 UNK        -0.0894 
     11 C11        31.8160   25.0961    4.9645 C.ar      12 UNK        -0.0804 
     12 C12        30.6950   24.7777    5.7401 C.ar      12 UNK        -0.0824 
     13 C13        29.7072   23.9132    5.2522 C.ar      12 UNK        -0.0762 
     14 C14        29.8593   23.3684    3.9714 C.ar      12 UNK        -0.0782 
     15 C15        28.5033   23.5724    6.1346 C.3       12 UNK         0.0230 
     16 S16        26.9885   23.0951    5.2231 S.3       12 UNK        -0.2608 
     17 C17        26.1897   24.6981    4.8742 C.3       12 UNK        -0.0989 
     18 CA         26.6854   25.3711    3.5576 C.3       5 UNK         0.0716 
     19 N          25.6297   26.0427    2.7960 N.am      5 UNK        -0.4135 
     20 C          24.7845   26.9869    3.2410 C.2       4 UNK         0.5031 
     21 O          24.7256   27.3551    4.4147 O.2       4 UNK        -0.5229 
     22 CA         23.8410   27.6562    2.2173 C.3       4 UNK         0.0329 
     23 CB         24.1992   29.1434    2.0520 C.3       4 UNK        -0.2001 
     24 N          23.8496   27.0279    0.8949 N.am      4 UNK        -0.4303 
     25 C          23.3332   25.8283    0.5945 C.2       3 UNK         0.5044 
     26 O          22.6733   25.1513    1.3831 O.2       3 UNK        -0.5152 
     27 CA         23.6384   25.2701   -0.8106 C.3       3 UNK         0.0319 
     28 CB         22.4098   25.4155   -1.7232 C.3       3 UNK        -0.2001 
     29 N          24.8039   25.8751   -1.4735 N.am      3 UNK        -0.4354 
     30 C          26.0632   25.8534   -1.0127 C.2       2 UNK         0.4964 
     31 O          26.3910   25.3579    0.0692 O.2       2 UNK        -0.5047 
     32 CA         27.1075   26.5911   -1.8627 C.3       2 UNK         0.0288 
     33 CB         27.1764   28.0699   -1.4450 C.3       2 UNK        -0.2113 
     34 N          28.4288   25.9900   -1.6968 N.am      2 UNK        -0.4145 
     35 C          28.8324   24.8654   -2.2994 C.2       1 UNK         0.5006 
     36 O          28.1638   24.2618   -3.1442 O.2       1 UNK        -0.5103 
     37 C          27.8562   26.3520    3.7546 C.2       5 UNK         0.5055 
     38 O          28.0869   26.8364    4.8649 O.2       5 UNK        -0.5220 
     39 N          28.5511   26.6594    2.6535 N.am      6 UNK        -0.4450 
     40 CA         29.7423   27.4989    2.6462 C.3       6 UNK         0.0367 
     41 CB         29.3569   28.9883    2.7234 C.3       6 UNK        -0.1929 
     42 C          30.5458   27.2174    1.3763 C.2       6 UNK         0.5070 
     43 O          29.9650   27.1902    0.2909 O.2       6 UNK        -0.5237 
     44 N          31.8654   27.0597    1.5220 N.am      7 UNK        -0.4739 
     45 CA         32.8186   27.0693    0.4064 C.3       7 UNK         0.0276 
     46 CB         34.0663   26.2567    0.7869 C.3       7 UNK        -0.1927 
     47 C          33.2033   28.5101    0.0285 C.2       7 UNK         0.5013 
     48 O          33.4579   28.7935   -1.1419 O.2       7 UNK        -0.5193 
     49 N          33.2101   29.3910    1.0327 N.am      8 UNK        -0.4253 
     50 CA         33.3777   30.8334    0.9550 C.3       8 UNK         0.0242 
     51 CB         34.8710   31.1937    0.8610 C.3       8 UNK        -0.2000 
     52 C          32.7533   31.3946    2.2352 C.2       8 UNK         0.4948 
     53 O          32.7119   30.6837    3.2436 O.2       8 UNK        -0.5275 
     54 N          32.3084   32.6576    2.1998 N.am      9 UNK        -0.4246 
     55 CA         31.6368   33.3383    3.3185 C.3       9 UNK         0.0261 
     56 CB         31.2319   34.7561    2.8834 C.3       9 UNK        -0.1959 
     57 C          32.4559   33.3897    4.6235 C.2       9 UNK         0.5033 
     58 O          31.8704   33.4184    5.7068 O.2       9 UNK        -0.5390 
     59 N          33.7892   33.3621    4.4960 N.am      10 UNK        -0.4215 
     60 CA         34.7460   33.2968    5.5991 C.3       10 UNK         0.0240 
     61 CB         36.1632   33.5175    5.0444 C.3       10 UNK        -0.1982 
     62 C          34.6891   31.9915    6.4163 C.2       10 UNK         0.4970 
     63 O          35.0938   32.0208    7.5796 O.2       10 UNK        -0.4916 
     64 N          34.2134   30.8827    5.8241 N.am      11 UNK        -0.4279 
     65 CA         34.0829   29.5872    6.5149 C.3       11 UNK         0.1003 
     66 C          32.7950   29.4479    7.3812 C.2       11 UNK         0.5709 
     67 N          31.8582   30.3895    7.3400 N.am      11 UNK        -0.7358 
     68 O          32.6601   28.4831    8.1299 O.2       11 UNK        -0.4999 
     69 C69        34.3833   28.3825    5.5707 C.3       12 UNK        -0.0954 
     70 S70        32.9659   27.6220    4.6988 S.3       12 UNK        -0.2268 
     71 C71        32.9134   25.9945    5.5186 C.3       12 UNK         0.0203 
     72 H72        32.2384   23.1123   -5.1254 H         1 UNK         0.0888 
     73 H73        33.3012   24.5209   -5.1307 H         1 UNK         0.0888 
     74 H74        31.7911   24.5502   -6.0456 H         1 UNK         0.0888 
     75 H75        31.0330   22.9328   -3.2492 H         1 UNK         0.3017 
     76 H76        30.7622   25.0954   -1.3675 H         1 UNK         0.0873 
     77 H77        31.0045   22.5662   -0.8318 H         1 UNK         0.0745 
     78 H78        29.3286   22.3869   -1.2644 H         1 UNK         0.0745 
     79 H79        31.1409   22.0931    1.7705 H         1 UNK         0.0705 
     80 H80        31.9410   23.5653    1.2527 H         1 UNK         0.0705 
     81 H81        32.8018   24.8033    3.0815 H         1 UNK         0.1334 
     82 H82        30.5944   25.1990    6.7312 H         1 UNK         0.1417 
     83 H83        29.1154   22.6934    3.5727 H         1 UNK         0.1562 
     84 H84        28.2705   24.4095    6.7948 H         1 UNK         0.0748 
     85 H85        28.7866   22.7412    6.7812 H         1 UNK         0.0748 
     86 H86        26.2622   25.3570    5.7413 H         1 UNK         0.0940 
     87 H87        25.1253   24.4753    4.7867 H         1 UNK         0.0940 
     88 H88        27.0460   24.5832    2.8933 H         1 UNK         0.0703 
     89 H89        25.6338   25.8310    1.8024 H         1 UNK         0.3081 
     90 H90        22.8279   27.5886    2.6194 H         1 UNK         0.0719 
     91 H91        24.1575   29.6652    3.0092 H         1 UNK         0.0809 
     92 H92        25.2066   29.2743    1.6544 H         1 UNK         0.0809 
     93 H93        23.5034   29.6485    1.3817 H         1 UNK         0.0809 
     94 H94        24.3619   27.5098    0.1712 H         1 UNK         0.2990 
     95 H95        23.8504   24.2057   -0.6900 H         1 UNK         0.0690 
     96 H96        22.5713   24.9336   -2.6878 H         1 UNK         0.0788 
     97 H97        22.1641   26.4624   -1.9059 H         1 UNK         0.0788 
     98 H98        21.5317   24.9485   -1.2746 H         1 UNK         0.0788 
     99 H99        24.6235   26.3291   -2.3580 H         1 UNK         0.2993 
    100 H100       26.8223   26.5319   -2.9155 H         1 UNK         0.0949 
    101 H101       27.4282   28.1800   -0.3889 H         1 UNK         0.0767 
    102 H102       27.9279   28.6087   -2.0226 H         1 UNK         0.0767 
    103 H103       26.2219   28.5716   -1.6087 H         1 UNK         0.0767 
    104 H104       29.0247   26.4086   -0.9815 H         1 UNK         0.3013 
    105 H105       28.3230   26.2243    1.7671 H         1 UNK         0.3121 
    106 H106       30.3494   27.2409    3.5150 H         1 UNK         0.0774 
    107 H107       28.7205   29.2824    1.8879 H         1 UNK         0.0815 
    108 H108       28.8260   29.2176    3.6471 H         1 UNK         0.0815 
    109 H109       30.2439   29.6212    2.6993 H         1 UNK         0.0815 
    110 H110       32.2531   27.0777    2.4566 H         1 UNK         0.2987 
    111 H111       32.3638   26.6080   -0.4726 H         1 UNK         0.0949 
    112 H112       33.8219   25.2071    0.9461 H         1 UNK         0.0806 
    113 H113       34.8117   26.2933   -0.0088 H         1 UNK         0.0806 
    114 H114       34.5385   26.6363    1.6941 H         1 UNK         0.0806 
    115 H115       32.9686   29.0804    1.9666 H         1 UNK         0.3010 
    116 H116       32.8366   31.2166    0.0873 H         1 UNK         0.0829 
    117 H117       35.0124   32.2738    0.8099 H         1 UNK         0.0813 
    118 H118       35.3266   30.7665   -0.0325 H         1 UNK         0.0813 
    119 H119       35.4280   30.8296    1.7255 H         1 UNK         0.0813 
    120 H120       32.3914   33.1796    1.3385 H         1 UNK         0.3038 
    121 H121       30.7267   32.7758    3.5376 H         1 UNK         0.0769 
    122 H122       30.5584   34.7325    2.0265 H         1 UNK         0.0811 
    123 H123       32.0996   35.3597    2.6142 H         1 UNK         0.0811 
    124 H124       30.7097   35.2770    3.6874 H         1 UNK         0.0811 
    125 H125       34.1709   33.3378    3.5622 H         1 UNK         0.3204 
    126 H126       34.5157   34.1162    6.2835 H         1 UNK         0.0748 
    127 H127       36.9029   33.5076    5.8465 H         1 UNK         0.0771 
    128 H128       36.4441   32.7397    4.3329 H         1 UNK         0.0771 
    129 H129       36.2483   34.4812    4.5417 H         1 UNK         0.0771 
    130 H130       33.8304   30.9248    4.8845 H         1 UNK         0.2980 
    131 H131       34.8877   29.5550    7.2521 H         1 UNK         0.0545 
    132 H132       31.9653   31.1970    6.7437 H         1 UNK         0.3459 
    133 H133       31.0362   30.2910    7.9137 H         1 UNK         0.3459 
    134 H134       34.8766   27.6031    6.1535 H         1 UNK         0.0616 
    135 H135       35.1193   28.6708    4.8187 H         1 UNK         0.0616 
    136 H136       33.8762   25.4976    5.3905 H         1 UNK         0.0634 
    137 H137       32.7816   26.1411    6.5916 H         1 UNK         0.0634 
@<TRIPOS>BOND
     1    1    2 1    
     2    1   72 1    
     3    1   73 1    
     4    1   74 1    
     5    2    3 2    
     6    2    4 am   BACKBONE|DICT|INTERRES
     7    4    5 1    
     8    4   75 1    
     9    5    6 1    
    10    5   35 1    
    11    5   76 1    
    12    6    7 1    
    13    6   77 1    
    14    6   78 1    
    15    7    8 1    
    16    8    9 1    
    17    8   79 1    
    18    8   80 1    
    19    9   10 ar   
    20    9   14 ar   
    21   10   11 ar   
    22   10   81 1    
    23   11   12 ar   
    24   11   71 1    
    25   12   13 ar   
    26   12   82 1    
    27   13   14 ar   
    28   13   15 1    
    29   14   83 1    
    30   15   16 1    
    31   15   84 1    
    32   15   85 1    
    33   16   17 1    
    34   17   18 1    
    35   17   86 1    
    36   17   87 1    
    37   18   19 1    
    38   18   37 1    
    39   18   88 1    
    40   19   20 am   BACKBONE|DICT|INTERRES
    41   19   89 1    
    42   20   21 2    
    43   20   22 1    
    44   22   23 1    
    45   22   24 1    
    46   22   90 1    
    47   23   91 1    
    48   23   92 1    
    49   23   93 1    
    50   24   25 am   BACKBONE|DICT|INTERRES
    51   24   94 1    
    52   25   26 2    
    53   25   27 1    
    54   27   28 1    
    55   27   29 1    
    56   27   95 1    
    57   28   96 1    
    58   28   97 1    
    59   28   98 1    
    60   29   30 am   BACKBONE|DICT|INTERRES
    61   29   99 1    
    62   30   31 2    
    63   30   32 1    
    64   32   33 1    
    65   32   34 1    
    66   32  100 1    
    67   33  101 1    
    68   33  102 1    
    69   33  103 1    
    70   34   35 am   BACKBONE|DICT|INTERRES
    71   34  104 1    
    72   35   36 2    
    73   37   38 2    
    74   37   39 am   BACKBONE|DICT|INTERRES
    75   39   40 1    
    76   39  105 1    
    77   40   41 1    
    78   40   42 1    
    79   40  106 1    
    80   41  107 1    
    81   41  108 1    
    82   41  109 1    
    83   42   43 2    
    84   42   44 am   BACKBONE|DICT|INTERRES
    85   44   45 1    
    86   44  110 1    
    87   45   46 1    
    88   45   47 1    
    89   45  111 1    
    90   46  112 1    
    91   46  113 1    
    92   46  114 1    
    93   47   48 2    
    94   47   49 am   BACKBONE|DICT|INTERRES
    95   49   50 1    
    96   49  115 1    
    97   50   51 1    
    98   50   52 1    
    99   50  116 1    
   100   51  117 1    
   101   51  118 1    
   102   51  119 1    
   103   52   53 2    
   104   52   54 am   BACKBONE|DICT|INTERRES
   105   54   55 1    
   106   54  120 1    
   107   55   56 1    
   108   55   57 1    
   109   55  121 1    
   110   56  122 1    
   111   56  123 1    
   112   56  124 1    
   113   57   58 2    
   114   57   59 am   BACKBONE|DICT|INTERRES
   115   59   60 1    
   116   59  125 1    
   117   60   61 1    
   118   60   62 1    
   119   60  126 1    
   120   61  127 1    
   121   61  128 1    
   122   61  129 1    
   123   62   63 2    
   124   62   64 am   BACKBONE|DICT|INTERRES
   125   64   65 1    
   126   64  130 1    
   127   65   66 1    
   128   65   69 1    
   129   65  131 1    
   130   66   67 am   BACKBONE|DICT|INTERRES
   131   66   68 2    
   132   67  132 1    
   133   67  133 1    
   134   69   70 1    
   135   69  134 1    
   136   69  135 1    
   137   70   71 1    
   138   71  136 1    
   139   71  137 1    
@<TRIPOS>SUBSTRUCTURE
     1 UNK         1 GROUP             0       ****    0 ROOT    
