@<TRIPOS>MOLECULE
3R136
137   139    1
SMALL
USER_CHARGES


@<TRIPOS>ATOM
      1 CA         27.7961   30.2238   -3.2358 C.3       0 UNK        -0.1979 
      2 C          27.8410   29.0232   -2.3041 C.2       0 UNK         0.4864 
      3 O          26.7935   28.4848   -1.9473 O.2       0 UNK        -0.5359 
      4 N          29.0470   28.5764   -1.9248 N.am      1 UNK        -0.4318 
      5 CA         29.2834   27.4890   -0.9613 C.3       1 UNK         0.0824 
      6 C6         30.7593   27.4710   -0.4837 C.3       12 UNK        -0.0944 
      7 S7         30.8917   27.0673    1.2875 S.3       12 UNK        -0.2672 
      8 C8         31.7565   25.4695    1.2036 C.3       12 UNK         0.0333 
      9 C9         31.7634   24.7841    2.5594 C.ar      12 UNK        -0.0807 
     10 C10        32.6367   25.2160    3.5618 C.ar      12 UNK        -0.0894 
     11 C11        32.6275   24.6059    4.8190 C.ar      12 UNK        -0.0804 
     12 C12        31.7298   23.5653    5.0736 C.ar      12 UNK        -0.0824 
     13 C13        30.8559   23.1190    4.0770 C.ar      12 UNK        -0.0762 
     14 C14        30.8915   23.7211    2.8149 C.ar      12 UNK        -0.0782 
     15 C15        29.8763   21.9879    4.3765 C.3       12 UNK         0.0230 
     16 S16        28.1309   22.4264    4.0597 S.3       12 UNK        -0.2608 
     17 C17        27.9653   24.0401    4.8970 C.3       12 UNK        -0.0989 
     18 CA         27.8217   25.1802    3.8595 C.3       5 UNK         0.0716 
     19 N          26.5379   25.1224    3.1579 N.am      5 UNK        -0.4135 
     20 C          26.2323   25.8534    2.0809 C.2       4 UNK         0.5031 
     21 O          26.9938   26.6737    1.5651 O.2       4 UNK        -0.5229 
     22 CA         24.8351   25.6462    1.4913 C.3       4 UNK         0.0329 
     23 CB         23.8046   26.5582    2.1840 C.3       4 UNK        -0.2001 
     24 N          24.8879   25.9315    0.0608 N.am      4 UNK        -0.4303 
     25 C          23.9945   25.5222   -0.8470 C.2       3 UNK         0.5044 
     26 O          22.9907   24.8625   -0.5732 O.2       3 UNK        -0.5152 
     27 CA         24.2625   25.9045   -2.3106 C.3       3 UNK         0.0319 
     28 CB         23.7151   27.3097   -2.6102 C.3       3 UNK        -0.2001 
     29 N          25.6864   25.8433   -2.6515 N.am      3 UNK        -0.4354 
     30 C          26.3336   24.7065   -2.9580 C.2       2 UNK         0.4964 
     31 O          25.7896   23.6018   -2.9847 O.2       2 UNK        -0.5047 
     32 CA         27.8296   24.7990   -3.3185 C.3       2 UNK         0.0288 
     33 CB         28.0129   24.8275   -4.8450 C.3       2 UNK        -0.2113 
     34 N          28.4881   25.9682   -2.7375 N.am      2 UNK        -0.4145 
     35 C          28.8016   26.0962   -1.4405 C.2       1 UNK         0.5006 
     36 O          28.7025   25.1696   -0.6355 O.2       1 UNK        -0.5103 
     37 C          28.0494   26.5572    4.5076 C.2       5 UNK         0.5055 
     38 O          27.1396   27.0895    5.1479 O.2       5 UNK        -0.5220 
     39 N          29.2672   27.0863    4.3246 N.am      6 UNK        -0.4450 
     40 CA         29.7600   28.3877    4.7904 C.3       6 UNK         0.0367 
     41 CB         29.7457   28.4659    6.3321 C.3       6 UNK        -0.1929 
     42 C          29.0615   29.6020    4.1407 C.2       6 UNK         0.5070 
     43 O          29.1560   30.7073    4.6764 O.2       6 UNK        -0.5237 
     44 N          28.3781   29.4037    3.0024 N.am      7 UNK        -0.4739 
     45 CA         27.6238   30.4531    2.3049 C.3       7 UNK         0.0276 
     46 CB         26.5243   29.8110    1.4458 C.3       7 UNK        -0.1927 
     47 C          28.4922   31.4016    1.4582 C.2       7 UNK         0.5013 
     48 O          27.9706   32.4130    0.9859 O.2       7 UNK        -0.5193 
     49 N          29.7805   31.0826    1.2769 N.am      8 UNK        -0.4253 
     50 CA         30.7431   31.9353    0.5764 C.3       8 UNK         0.0242 
     51 CB         30.6787   31.7137   -0.9459 C.3       8 UNK        -0.2000 
     52 C          32.1634   31.7398    1.1159 C.2       8 UNK         0.4948 
     53 O          32.8311   32.7318    1.4116 O.2       8 UNK        -0.5275 
     54 N          32.6075   30.4806    1.2396 N.am      9 UNK        -0.4246 
     55 CA         33.9165   30.1377    1.7986 C.3       9 UNK         0.0261 
     56 CB         34.2976   28.7093    1.3760 C.3       9 UNK        -0.1959 
     57 C          33.9010   30.2552    3.3297 C.2       9 UNK         0.5033 
     58 O          32.9111   29.8726    3.9569 O.2       9 UNK        -0.5390 
     59 N          35.0047   30.7480    3.9023 N.am      10 UNK        -0.4215 
     60 CA         35.2259   30.7843    5.3467 C.3       10 UNK         0.0240 
     61 CB         36.2115   31.9149    5.6871 C.3       10 UNK        -0.1982 
     62 C          35.7700   29.4262    5.8098 C.2       10 UNK         0.4970 
     63 O          36.7438   28.9392    5.2300 O.2       10 UNK        -0.4916 
     64 N          35.1445   28.8510    6.8412 N.am      11 UNK        -0.4279 
     65 CA         35.5255   27.5516    7.4201 C.3       11 UNK         0.1003 
     66 C          36.6782   27.6287    8.4634 C.2       11 UNK         0.5709 
     67 N          37.1484   28.8075    8.8550 N.am      11 UNK        -0.7358 
     68 O          37.1658   26.5962    8.9174 O.2       11 UNK        -0.4999 
     69 C69        34.2978   26.7903    7.9874 C.3       12 UNK        -0.0954 
     70 S70        32.9794   26.5438    6.7513 S.3       12 UNK        -0.2268 
     71 C71        33.5949   25.0632    5.8982 C.3       12 UNK         0.0203 
     72 H72        27.2314   29.9802   -4.1352 H         1 UNK         0.0888 
     73 H73        27.3038   31.0599   -2.7398 H         1 UNK         0.0888 
     74 H74        28.7928   30.5458   -3.5366 H         1 UNK         0.0888 
     75 H75        29.8736   29.0246   -2.2924 H         1 UNK         0.3017 
     76 H76        28.6559   27.7330   -0.1032 H         1 UNK         0.0873 
     77 H77        31.2159   28.4528   -0.6027 H         1 UNK         0.0745 
     78 H78        31.3725   26.7970   -1.0855 H         1 UNK         0.0745 
     79 H79        31.2731   24.8331    0.4606 H         1 UNK         0.0705 
     80 H80        32.7802   25.6270    0.8606 H         1 UNK         0.0705 
     81 H81        33.3172   26.0339    3.3678 H         1 UNK         0.1334 
     82 H82        31.7151   23.1016    6.0507 H         1 UNK         0.1417 
     83 H83        30.2152   23.3811    2.0414 H         1 UNK         0.1562 
     84 H84        29.9645   21.6671    5.4157 H         1 UNK         0.0748 
     85 H85        30.1379   21.1220    3.7670 H         1 UNK         0.0748 
     86 H86        28.8279   24.2005    5.5467 H         1 UNK         0.0940 
     87 H87        27.0993   24.0098    5.5610 H         1 UNK         0.0940 
     88 H88        28.5894   25.0545    3.0949 H         1 UNK         0.0703 
     89 H89        25.8507   24.4887    3.5374 H         1 UNK         0.3081 
     90 H90        24.5521   24.6007    1.6319 H         1 UNK         0.0719 
     91 H91        23.7971   26.3958    3.2625 H         1 UNK         0.0809 
     92 H92        24.0237   27.6125    2.0136 H         1 UNK         0.0809 
     93 H93        22.7945   26.3655    1.8226 H         1 UNK         0.0809 
     94 H94        25.7062   26.4527   -0.2324 H         1 UNK         0.2990 
     95 H95        23.7214   25.1980   -2.9441 H         1 UNK         0.0690 
     96 H96        23.8850   27.5895   -3.6499 H         1 UNK         0.0788 
     97 H97        24.1767   28.0694   -1.9784 H         1 UNK         0.0788 
     98 H98        22.6395   27.3524   -2.4338 H         1 UNK         0.0788 
     99 H99        26.1990   26.7190   -2.5973 H         1 UNK         0.2993 
    100 H100       28.3157   23.9003   -2.9318 H         1 UNK         0.0949 
    101 H101       27.5514   25.7093   -5.2916 H         1 UNK         0.0767 
    102 H102       29.0684   24.8245   -5.1181 H         1 UNK         0.0767 
    103 H103       27.5575   23.9511   -5.3086 H         1 UNK         0.0767 
    104 H104       28.6085   26.7711   -3.3371 H         1 UNK         0.3013 
    105 H105       29.9280   26.5657    3.7609 H         1 UNK         0.3121 
    106 H106       30.8016   28.4311    4.4714 H         1 UNK         0.0774 
    107 H107       30.3226   29.3227    6.6822 H         1 UNK         0.0815 
    108 H108       28.7336   28.5741    6.7229 H         1 UNK         0.0815 
    109 H109       30.1839   27.5758    6.7819 H         1 UNK         0.0815 
    110 H110       28.3162   28.4670    2.6223 H         1 UNK         0.2987 
    111 H111       27.1293   31.0732    3.0561 H         1 UNK         0.0949 
    112 H112       25.9090   30.5689    0.9592 H         1 UNK         0.0806 
    113 H113       26.9414   29.1820    0.6611 H         1 UNK         0.0806 
    114 H114       25.8595   29.1964    2.0517 H         1 UNK         0.0806 
    115 H115       30.1384   30.2707    1.7593 H         1 UNK         0.3010 
    116 H116       30.4833   32.9784    0.7727 H         1 UNK         0.0829 
    117 H117       29.6811   31.9171   -1.3350 H         1 UNK         0.0813 
    118 H118       31.3683   32.3820   -1.4633 H         1 UNK         0.0813 
    119 H119       30.9480   30.6959   -1.2211 H         1 UNK         0.0813 
    120 H120       32.0081   29.7066    0.9987 H         1 UNK         0.3038 
    121 H121       34.6606   30.8261    1.3910 H         1 UNK         0.0769 
    122 H122       33.6328   27.9680    1.8183 H         1 UNK         0.0811 
    123 H123       35.3101   28.4658    1.7004 H         1 UNK         0.0811 
    124 H124       34.2656   28.5887    0.2931 H         1 UNK         0.0811 
    125 H125       35.7937   30.9910    3.3203 H         1 UNK         0.3204 
    126 H126       34.2805   30.9920    5.8534 H         1 UNK         0.0748 
    127 H127       36.3780   31.9764    6.7634 H         1 UNK         0.0771 
    128 H128       37.1834   31.7636    5.2151 H         1 UNK         0.0771 
    129 H129       35.8294   32.8835    5.3637 H         1 UNK         0.0771 
    130 H130       34.3483   29.3075    7.2612 H         1 UNK         0.2980 
    131 H131       35.9259   26.9360    6.6127 H         1 UNK         0.0545 
    132 H132       37.8990   28.8404    9.5268 H         1 UNK         0.3459 
    133 H133       36.7606   29.6613    8.4884 H         1 UNK         0.3459 
    134 H134       33.8707   27.3379    8.8292 H         1 UNK         0.0616 
    135 H135       34.5904   25.8141    8.3788 H         1 UNK         0.0616 
    136 H136       33.7569   24.2662    6.6256 H         1 UNK         0.0634 
    137 H137       34.5666   25.2785    5.4516 H         1 UNK         0.0634 
@<TRIPOS>BOND
     1    1    2 1    
     2    1   72 1    
     3    1   73 1    
     4    1   74 1    
     5    2    3 2    
     6    2    4 am   BACKBONE|DICT|INTERRES
     7    4    5 1    
     8    4   75 1    
     9    5    6 1    
    10    5   35 1    
    11    5   76 1    
    12    6    7 1    
    13    6   77 1    
    14    6   78 1    
    15    7    8 1    
    16    8    9 1    
    17    8   79 1    
    18    8   80 1    
    19    9   10 ar   
    20    9   14 ar   
    21   10   11 ar   
    22   10   81 1    
    23   11   12 ar   
    24   11   71 1    
    25   12   13 ar   
    26   12   82 1    
    27   13   14 ar   
    28   13   15 1    
    29   14   83 1    
    30   15   16 1    
    31   15   84 1    
    32   15   85 1    
    33   16   17 1    
    34   17   18 1    
    35   17   86 1    
    36   17   87 1    
    37   18   19 1    
    38   18   37 1    
    39   18   88 1    
    40   19   20 am   BACKBONE|DICT|INTERRES
    41   19   89 1    
    42   20   21 2    
    43   20   22 1    
    44   22   23 1    
    45   22   24 1    
    46   22   90 1    
    47   23   91 1    
    48   23   92 1    
    49   23   93 1    
    50   24   25 am   BACKBONE|DICT|INTERRES
    51   24   94 1    
    52   25   26 2    
    53   25   27 1    
    54   27   28 1    
    55   27   29 1    
    56   27   95 1    
    57   28   96 1    
    58   28   97 1    
    59   28   98 1    
    60   29   30 am   BACKBONE|DICT|INTERRES
    61   29   99 1    
    62   30   31 2    
    63   30   32 1    
    64   32   33 1    
    65   32   34 1    
    66   32  100 1    
    67   33  101 1    
    68   33  102 1    
    69   33  103 1    
    70   34   35 am   BACKBONE|DICT|INTERRES
    71   34  104 1    
    72   35   36 2    
    73   37   38 2    
    74   37   39 am   BACKBONE|DICT|INTERRES
    75   39   40 1    
    76   39  105 1    
    77   40   41 1    
    78   40   42 1    
    79   40  106 1    
    80   41  107 1    
    81   41  108 1    
    82   41  109 1    
    83   42   43 2    
    84   42   44 am   BACKBONE|DICT|INTERRES
    85   44   45 1    
    86   44  110 1    
    87   45   46 1    
    88   45   47 1    
    89   45  111 1    
    90   46  112 1    
    91   46  113 1    
    92   46  114 1    
    93   47   48 2    
    94   47   49 am   BACKBONE|DICT|INTERRES
    95   49   50 1    
    96   49  115 1    
    97   50   51 1    
    98   50   52 1    
    99   50  116 1    
   100   51  117 1    
   101   51  118 1    
   102   51  119 1    
   103   52   53 2    
   104   52   54 am   BACKBONE|DICT|INTERRES
   105   54   55 1    
   106   54  120 1    
   107   55   56 1    
   108   55   57 1    
   109   55  121 1    
   110   56  122 1    
   111   56  123 1    
   112   56  124 1    
   113   57   58 2    
   114   57   59 am   BACKBONE|DICT|INTERRES
   115   59   60 1    
   116   59  125 1    
   117   60   61 1    
   118   60   62 1    
   119   60  126 1    
   120   61  127 1    
   121   61  128 1    
   122   61  129 1    
   123   62   63 2    
   124   62   64 am   BACKBONE|DICT|INTERRES
   125   64   65 1    
   126   64  130 1    
   127   65   66 1    
   128   65   69 1    
   129   65  131 1    
   130   66   67 am   BACKBONE|DICT|INTERRES
   131   66   68 2    
   132   67  132 1    
   133   67  133 1    
   134   69   70 1    
   135   69  134 1    
   136   69  135 1    
   137   70   71 1    
   138   71  136 1    
   139   71  137 1    
@<TRIPOS>SUBSTRUCTURE
     1 UNK         1 GROUP             0       ****    0 ROOT    
