@<TRIPOS>MOLECULE
3R136
137   139    1
SMALL
USER_CHARGES


@<TRIPOS>ATOM
      1 CA         24.3796   27.9904    2.6848 C.3       0 UNK        -0.1979 
      2 C          24.8969   26.5763    2.8964 C.2       0 UNK         0.4864 
      3 O          24.1383   25.6198    2.7315 O.2       0 UNK        -0.5359 
      4 N          26.1735   26.4363    3.2726 N.am      1 UNK        -0.4318 
      5 CA         26.8482   25.1507    3.4732 C.3       1 UNK         0.0824 
      6 C6         28.0180   25.2693    4.4873 C.3       12 UNK        -0.0944 
      7 S7         29.2704   26.5226    4.0491 S.3       12 UNK        -0.2672 
      8 C8         30.6632   25.4786    3.5266 C.3       12 UNK         0.0333 
      9 C9         31.4533   26.1628    2.4259 C.ar      12 UNK        -0.0807 
     10 C10        32.5601   26.9555    2.7269 C.ar      12 UNK        -0.0894 
     11 C11        33.2795   27.5921    1.7125 C.ar      12 UNK        -0.0804 
     12 C12        32.8728   27.4353    0.3821 C.ar      12 UNK        -0.0824 
     13 C13        31.7496   26.6612    0.0644 C.ar      12 UNK        -0.0762 
     14 C14        31.0592   26.0154    1.0966 C.ar      12 UNK        -0.0782 
     15 C15        31.3053   26.5391   -1.3950 C.3       12 UNK         0.0230 
     16 S16        29.5051   26.3099   -1.6369 S.3       12 UNK        -0.2608 
     17 C17        28.8388   27.7577   -0.7483 C.3       12 UNK        -0.0989 
     18 CA         27.4148   28.1439   -1.2136 C.3       5 UNK         0.0716 
     19 N          26.4519   27.0659   -0.9689 N.am      5 UNK        -0.4135 
     20 C          25.2074   27.0340   -1.4628 C.2       4 UNK         0.5031 
     21 O          24.7475   27.8991   -2.2127 O.2       4 UNK        -0.5229 
     22 CA         24.3450   25.8185   -1.0680 C.3       4 UNK         0.0329 
     23 CB         22.9474   25.8305   -1.7230 C.3       4 UNK        -0.2001 
     24 N          25.0161   24.5379   -1.3167 N.am      4 UNK        -0.4303 
     25 C          25.5196   24.0791   -2.4726 C.2       3 UNK         0.5044 
     26 O          25.4598   24.6927   -3.5395 O.2       3 UNK        -0.5152 
     27 CA         26.2098   22.6974   -2.4223 C.3       3 UNK         0.0319 
     28 CB         26.9668   22.3650   -3.7223 C.3       3 UNK        -0.2001 
     29 N          27.1399   22.5774   -1.2956 N.am      3 UNK        -0.4354 
     30 C          26.7990   22.3337   -0.0237 C.2       2 UNK         0.4964 
     31 O          25.6368   22.1407    0.3384 O.2       2 UNK        -0.5047 
     32 CA         27.9197   22.3423    1.0345 C.3       2 UNK         0.0288 
     33 CB         29.3163   22.6940    0.4732 C.3       2 UNK        -0.2113 
     34 N          27.5742   23.2111    2.1683 N.am      2 UNK        -0.4145 
     35 C          27.2708   24.5191    2.1270 C.2       1 UNK         0.5006 
     36 O          27.3085   25.2048    1.0994 O.2       1 UNK        -0.5103 
     37 C          26.9778   29.4517   -0.5223 C.2       5 UNK         0.5055 
     38 O          26.3381   29.4107    0.5305 O.2       5 UNK        -0.5220 
     39 N          27.3763   30.5918   -1.1039 N.am      6 UNK        -0.4450 
     40 CA         27.2065   31.9210   -0.5035 C.3       6 UNK         0.0367 
     41 CB         27.3544   32.9934   -1.5954 C.3       6 UNK        -0.1929 
     42 C          28.1961   32.1847    0.6491 C.2       6 UNK         0.5070 
     43 O          27.9204   33.0264    1.5051 O.2       6 UNK        -0.5237 
     44 N          29.3304   31.4724    0.6413 N.am      7 UNK        -0.4739 
     45 CA         30.3446   31.4742    1.6951 C.3       7 UNK         0.0276 
     46 CB         31.6454   30.8992    1.1105 C.3       7 UNK        -0.1927 
     47 C          29.8995   30.6656    2.9288 C.2       7 UNK         0.5013 
     48 O          28.9311   29.9058    2.8597 O.2       7 UNK        -0.5193 
     49 N          30.6405   30.8370    4.0281 N.am      8 UNK        -0.4253 
     50 CA         30.4851   30.0945    5.2781 C.3       8 UNK         0.0242 
     51 CB         30.3036   31.1005    6.4284 C.3       8 UNK        -0.2000 
     52 C          31.7302   29.2298    5.5166 C.2       8 UNK         0.4948 
     53 O          32.7775   29.4796    4.9159 O.2       8 UNK        -0.5275 
     54 N          31.6118   28.2657    6.4407 N.am      9 UNK        -0.4246 
     55 CA         32.6314   27.2762    6.8275 C.3       9 UNK         0.0261 
     56 CB         32.0104   26.3104    7.8506 C.3       9 UNK        -0.1959 
     57 C          33.9723   27.8347    7.3537 C.2       9 UNK         0.5033 
     58 O          34.9108   27.0583    7.5420 O.2       9 UNK        -0.5390 
     59 N          34.0595   29.1555    7.5608 N.am      10 UNK        -0.4215 
     60 CA         35.2463   29.9028    7.9854 C.3       10 UNK         0.0240 
     61 CB         34.8673   31.3848    8.1432 C.3       10 UNK        -0.1982 
     62 C          36.4754   29.7576    7.0650 C.2       10 UNK         0.4970 
     63 O          37.5870   30.0158    7.5293 O.2       10 UNK        -0.4916 
     64 N          36.2791   29.3382    5.8050 N.am      11 UNK        -0.4279 
     65 CA         37.3687   28.9509    4.8934 C.3       11 UNK         0.1003 
     66 C          38.1416   27.6597    5.3066 C.2       11 UNK         0.5709 
     67 N          37.6305   26.8333    6.2140 N.am      11 UNK        -0.7358 
     68 O          39.2345   27.4134    4.8013 O.2       11 UNK        -0.4999 
     69 C69        36.9132   28.9145    3.4087 C.3       12 UNK        -0.0954 
     70 S70        35.7295   27.5789    3.0178 S.3       12 UNK        -0.2268 
     71 C71        34.4658   28.4798    2.0674 C.3       12 UNK         0.0203 
     72 H72        25.1354   28.7382    2.9261 H         1 UNK         0.0888 
     73 H73        24.0868   28.1307    1.6446 H         1 UNK         0.0888 
     74 H74        23.5090   28.1725    3.3140 H         1 UNK         0.0888 
     75 H75        26.7730   27.2479    3.3380 H         1 UNK         0.3017 
     76 H76        26.1196   24.4666    3.9144 H         1 UNK         0.0873 
     77 H77        28.4954   24.3020    4.6521 H         1 UNK         0.0745 
     78 H78        27.6130   25.5515    5.4603 H         1 UNK         0.0745 
     79 H79        30.3014   24.5156    3.1639 H         1 UNK         0.0705 
     80 H80        31.2996   25.2670    4.3870 H         1 UNK         0.0705 
     81 H81        32.8658   27.0867    3.7529 H         1 UNK         0.1334 
     82 H82        33.4188   27.9352   -0.4063 H         1 UNK         0.1417 
     83 H83        30.1859   25.4209    0.8785 H         1 UNK         0.1562 
     84 H84        31.8260   25.6937   -1.8462 H         1 UNK         0.0748 
     85 H85        31.6122   27.4249   -1.9534 H         1 UNK         0.0748 
     86 H86        29.5312   28.5884   -0.8959 H         1 UNK         0.0940 
     87 H87        28.8409   27.5468    0.3238 H         1 UNK         0.0940 
     88 H88        27.4397   28.3226   -2.2908 H         1 UNK         0.0703 
     89 H89        26.7558   26.3347   -0.3294 H         1 UNK         0.3081 
     90 H90        24.2016   25.8837    0.0104 H         1 UNK         0.0719 
     91 H91        22.4035   26.7401   -1.4650 H         1 UNK         0.0809 
     92 H92        23.0095   25.7857   -2.8108 H         1 UNK         0.0809 
     93 H93        22.3446   24.9873   -1.3861 H         1 UNK         0.0809 
     94 H94        25.1315   23.9387   -0.5060 H         1 UNK         0.2990 
     95 H95        25.4187   21.9540   -2.3028 H         1 UNK         0.0690 
     96 H96        27.4160   21.3726   -3.6779 H         1 UNK         0.0788 
     97 H97        27.7613   23.0856   -3.9208 H         1 UNK         0.0788 
     98 H98        26.2945   22.3741   -4.5814 H         1 UNK         0.0788 
     99 H99        28.1097   22.7774   -1.4943 H         1 UNK         0.2993 
    100 H100       27.9689   21.3267    1.4304 H         1 UNK         0.0949 
    101 H101       29.3143   23.6428   -0.0615 H         1 UNK         0.0767 
    102 H102       30.0577   22.7607    1.2694 H         1 UNK         0.0767 
    103 H103       29.6644   21.9271   -0.2201 H         1 UNK         0.0767 
    104 H104       27.4764   22.7326    3.0528 H         1 UNK         0.3013 
    105 H105       27.8757   30.5501   -1.9814 H         1 UNK         0.3121 
    106 H106       26.1970   31.9905   -0.0919 H         1 UNK         0.0774 
    107 H107       27.2037   33.9919   -1.1824 H         1 UNK         0.0815 
    108 H108       28.3459   32.9759   -2.0494 H         1 UNK         0.0815 
    109 H109       26.6177   32.8584   -2.3875 H         1 UNK         0.0815 
    110 H110       29.4485   30.7895   -0.0897 H         1 UNK         0.2987 
    111 H111       30.5204   32.5063    2.0069 H         1 UNK         0.0949 
    112 H112       31.9807   31.4697    0.2442 H         1 UNK         0.0806 
    113 H113       32.4533   30.9229    1.8422 H         1 UNK         0.0806 
    114 H114       31.5157   29.8621    0.8012 H         1 UNK         0.0806 
    115 H115       31.4753   31.4032    3.9680 H         1 UNK         0.3010 
    116 H116       29.6133   29.4380    5.2333 H         1 UNK         0.0829 
    117 H117       29.4308   31.7326    6.2633 H         1 UNK         0.0813 
    118 H118       30.1545   30.5917    7.3816 H         1 UNK         0.0813 
    119 H119       31.1711   31.7530    6.5376 H         1 UNK         0.0813 
    120 H120       30.7148   28.1607    6.8933 H         1 UNK         0.3038 
    121 H121       32.8757   26.6972    5.9370 H         1 UNK         0.0769 
    122 H122       32.7165   25.5281    8.1332 H         1 UNK         0.0811 
    123 H123       31.1297   25.8128    7.4437 H         1 UNK         0.0811 
    124 H124       31.7149   26.8274    8.7644 H         1 UNK         0.0811 
    125 H125       33.2453   29.7058    7.3316 H         1 UNK         0.3204 
    126 H126       35.5360   29.5162    8.9645 H         1 UNK         0.0748 
    127 H127       35.7187   31.9725    8.4899 H         1 UNK         0.0771 
    128 H128       34.5351   31.8179    7.1986 H         1 UNK         0.0771 
    129 H129       34.0686   31.5161    8.8735 H         1 UNK         0.0771 
    130 H130       35.3380   29.1500    5.4883 H         1 UNK         0.2980 
    131 H131       38.1094   29.7505    4.9561 H         1 UNK         0.0545 
    132 H132       38.1465   26.0077    6.4718 H         1 UNK         0.3459 
    133 H133       36.7227   27.0103    6.6308 H         1 UNK         0.3459 
    134 H134       36.4755   29.8776    3.1417 H         1 UNK         0.0616 
    135 H135       37.7782   28.7965    2.7538 H         1 UNK         0.0616 
    136 H136       34.1114   29.3275    2.6535 H         1 UNK         0.0634 
    137 H137       34.9268   28.8909    1.1682 H         1 UNK         0.0634 
@<TRIPOS>BOND
     1    1    2 1    
     2    1   72 1    
     3    1   73 1    
     4    1   74 1    
     5    2    3 2    
     6    2    4 am   BACKBONE|DICT|INTERRES
     7    4    5 1    
     8    4   75 1    
     9    5    6 1    
    10    5   35 1    
    11    5   76 1    
    12    6    7 1    
    13    6   77 1    
    14    6   78 1    
    15    7    8 1    
    16    8    9 1    
    17    8   79 1    
    18    8   80 1    
    19    9   10 ar   
    20    9   14 ar   
    21   10   11 ar   
    22   10   81 1    
    23   11   12 ar   
    24   11   71 1    
    25   12   13 ar   
    26   12   82 1    
    27   13   14 ar   
    28   13   15 1    
    29   14   83 1    
    30   15   16 1    
    31   15   84 1    
    32   15   85 1    
    33   16   17 1    
    34   17   18 1    
    35   17   86 1    
    36   17   87 1    
    37   18   19 1    
    38   18   37 1    
    39   18   88 1    
    40   19   20 am   BACKBONE|DICT|INTERRES
    41   19   89 1    
    42   20   21 2    
    43   20   22 1    
    44   22   23 1    
    45   22   24 1    
    46   22   90 1    
    47   23   91 1    
    48   23   92 1    
    49   23   93 1    
    50   24   25 am   BACKBONE|DICT|INTERRES
    51   24   94 1    
    52   25   26 2    
    53   25   27 1    
    54   27   28 1    
    55   27   29 1    
    56   27   95 1    
    57   28   96 1    
    58   28   97 1    
    59   28   98 1    
    60   29   30 am   BACKBONE|DICT|INTERRES
    61   29   99 1    
    62   30   31 2    
    63   30   32 1    
    64   32   33 1    
    65   32   34 1    
    66   32  100 1    
    67   33  101 1    
    68   33  102 1    
    69   33  103 1    
    70   34   35 am   BACKBONE|DICT|INTERRES
    71   34  104 1    
    72   35   36 2    
    73   37   38 2    
    74   37   39 am   BACKBONE|DICT|INTERRES
    75   39   40 1    
    76   39  105 1    
    77   40   41 1    
    78   40   42 1    
    79   40  106 1    
    80   41  107 1    
    81   41  108 1    
    82   41  109 1    
    83   42   43 2    
    84   42   44 am   BACKBONE|DICT|INTERRES
    85   44   45 1    
    86   44  110 1    
    87   45   46 1    
    88   45   47 1    
    89   45  111 1    
    90   46  112 1    
    91   46  113 1    
    92   46  114 1    
    93   47   48 2    
    94   47   49 am   BACKBONE|DICT|INTERRES
    95   49   50 1    
    96   49  115 1    
    97   50   51 1    
    98   50   52 1    
    99   50  116 1    
   100   51  117 1    
   101   51  118 1    
   102   51  119 1    
   103   52   53 2    
   104   52   54 am   BACKBONE|DICT|INTERRES
   105   54   55 1    
   106   54  120 1    
   107   55   56 1    
   108   55   57 1    
   109   55  121 1    
   110   56  122 1    
   111   56  123 1    
   112   56  124 1    
   113   57   58 2    
   114   57   59 am   BACKBONE|DICT|INTERRES
   115   59   60 1    
   116   59  125 1    
   117   60   61 1    
   118   60   62 1    
   119   60  126 1    
   120   61  127 1    
   121   61  128 1    
   122   61  129 1    
   123   62   63 2    
   124   62   64 am   BACKBONE|DICT|INTERRES
   125   64   65 1    
   126   64  130 1    
   127   65   66 1    
   128   65   69 1    
   129   65  131 1    
   130   66   67 am   BACKBONE|DICT|INTERRES
   131   66   68 2    
   132   67  132 1    
   133   67  133 1    
   134   69   70 1    
   135   69  134 1    
   136   69  135 1    
   137   70   71 1    
   138   71  136 1    
   139   71  137 1    
@<TRIPOS>SUBSTRUCTURE
     1 UNK         1 GROUP             0       ****    0 ROOT    
