@<TRIPOS>MOLECULE
3R136
137   139    1
SMALL
USER_CHARGES


@<TRIPOS>ATOM
      1 CA         33.7060   27.6180   -3.7956 C.3       0 UNK        -0.1979 
      2 C          32.5248   27.8656   -2.8692 C.2       0 UNK         0.4864 
      3 O          32.1811   29.0203   -2.6135 O.2       0 UNK        -0.5359 
      4 N          31.9115   26.7915   -2.3536 N.am      1 UNK        -0.4318 
      5 CA         30.7263   26.8391   -1.4917 C.3       1 UNK         0.0824 
      6 C6         30.4848   25.4777   -0.7797 C.3       12 UNK        -0.0944 
      7 S7         30.0997   25.6716    0.9922 S.3       12 UNK        -0.2672 
      8 C8         31.5591   24.8938    1.7570 C.3       12 UNK         0.0333 
      9 C9         31.3779   24.7556    3.2601 C.ar      12 UNK        -0.0807 
     10 C10        31.8311   25.7587    4.1207 C.ar      12 UNK        -0.0894 
     11 C11        31.6289   25.6562    5.5001 C.ar      12 UNK        -0.0804 
     12 C12        30.9446   24.5503    6.0145 C.ar      12 UNK        -0.0824 
     13 C13        30.4918   23.5344    5.1654 C.ar      12 UNK        -0.0762 
     14 C14        30.7418   23.6292    3.7913 C.ar      12 UNK        -0.0782 
     15 C15        29.7377   22.3382    5.7409 C.3       12 UNK         0.0230 
     16 S16        28.1364   22.0213    4.9186 S.3       12 UNK        -0.2608 
     17 C17        27.2435   23.5965    5.1672 C.3       12 UNK        -0.0989 
     18 CA         27.3253   24.5061    3.9117 C.3       5 UNK         0.0716 
     19 N          26.8072   23.8878    2.6886 N.am      5 UNK        -0.4135 
     20 C          25.5314   23.6188    2.3878 C.2       4 UNK         0.5031 
     21 O          24.5774   23.8119    3.1444 O.2       4 UNK        -0.5229 
     22 CA         25.2900   23.0663    0.9681 C.3       4 UNK         0.0329 
     23 CB         24.1647   22.0160    0.9541 C.3       4 UNK        -0.2001 
     24 N          24.9792   24.1121   -0.0150 N.am      4 UNK        -0.4303 
     25 C          25.7295   25.1879   -0.2914 C.2       3 UNK         0.5044 
     26 O          26.7929   25.4550    0.2774 O.2       3 UNK        -0.5152 
     27 CA         25.2189   26.1268   -1.3941 C.3       3 UNK         0.0319 
     28 CB         23.8567   26.7567   -1.0371 C.3       3 UNK        -0.2001 
     29 N          26.2420   27.1509   -1.5725 N.am      3 UNK        -0.4354 
     30 C          26.3827   28.0112   -2.5835 C.2       2 UNK         0.4964 
     31 O          25.5900   28.1113   -3.5204 O.2       2 UNK        -0.5047 
     32 CA         27.6330   28.9103   -2.5461 C.3       2 UNK         0.0288 
     33 CB         27.3044   30.2695   -1.9060 C.3       2 UNK        -0.2113 
     34 N          28.7767   28.3111   -1.8444 N.am      2 UNK        -0.4145 
     35 C          29.4999   27.2861   -2.3184 C.2       1 UNK         0.5006 
     36 O          29.2447   26.7022   -3.3753 O.2       1 UNK        -0.5103 
     37 C          26.7850   25.9334    4.1265 C.2       5 UNK         0.5055 
     38 O          26.4192   26.3035    5.2449 O.2       5 UNK        -0.5220 
     39 N          26.7757   26.7200    3.0412 N.am      6 UNK        -0.4450 
     40 CA         26.6076   28.1726    3.0742 C.3       6 UNK         0.0367 
     41 CB         26.3697   28.6754    1.6422 C.3       6 UNK        -0.1929 
     42 C          27.8492   28.8600    3.6688 C.2       6 UNK         0.5070 
     43 O          28.9340   28.2762    3.6740 O.2       6 UNK        -0.5237 
     44 N          27.6799   30.1116    4.1125 N.am      7 UNK        -0.4739 
     45 CA         28.7545   30.9776    4.6056 C.3       7 UNK         0.0276 
     46 CB         28.1338   32.1218    5.4285 C.3       7 UNK        -0.1927 
     47 C          29.6301   31.4908    3.4453 C.2       7 UNK         0.5013 
     48 O          29.5127   32.6519    3.0478 O.2       7 UNK        -0.5193 
     49 N          30.4607   30.5983    2.9023 N.am      8 UNK        -0.4253 
     50 CA         31.3694   30.8289    1.7863 C.3       8 UNK         0.0242 
     51 CB         30.6218   30.5500    0.4696 C.3       8 UNK        -0.2000 
     52 C          32.5937   29.9168    1.9382 C.2       8 UNK         0.4948 
     53 O          32.5781   28.9993    2.7634 O.2       8 UNK        -0.5275 
     54 N          33.6289   30.1797    1.1274 N.am      9 UNK        -0.4246 
     55 CA         34.8977   29.4462    1.0448 C.3       9 UNK         0.0261 
     56 CB         34.6804   28.0481    0.4210 C.3       9 UNK        -0.1959 
     57 C          35.6409   29.4086    2.3936 C.2       9 UNK         0.5033 
     58 O          36.3397   30.3674    2.7245 O.2       9 UNK        -0.5390 
     59 N          35.4760   28.3099    3.1405 N.am      10 UNK        -0.4215 
     60 CA         36.0594   28.0860    4.4638 C.3       10 UNK         0.0240 
     61 CB         36.0116   26.5800    4.7751 C.3       10 UNK        -0.1982 
     62 C          35.3946   28.9001    5.5916 C.2       10 UNK         0.4970 
     63 O          35.9796   28.9918    6.6719 O.2       10 UNK        -0.4916 
     64 N          34.2053   29.4611    5.3458 N.am      11 UNK        -0.4279 
     65 CA         33.4348   30.2653    6.3040 C.3       11 UNK         0.1003 
     66 C          32.7661   31.4926    5.6245 C.2       11 UNK         0.5709 
     67 N          31.8315   32.1595    6.2891 N.am      11 UNK        -0.7358 
     68 O          33.1246   31.8902    4.5183 O.2       11 UNK        -0.4999 
     69 C69        32.4955   29.3915    7.1881 C.3       12 UNK        -0.0954 
     70 S70        31.3530   28.3263    6.2420 S.3       12 UNK        -0.2268 
     71 C71        32.1872   26.7209    6.4329 C.3       12 UNK         0.0203 
     72 H72        33.9168   26.5553   -3.9135 H         1 UNK         0.0888 
     73 H73        33.5025   28.0352   -4.7814 H         1 UNK         0.0888 
     74 H74        34.6000   28.0989   -3.3996 H         1 UNK         0.0888 
     75 H75        32.2167   25.8694   -2.6293 H         1 UNK         0.3017 
     76 H76        30.9323   27.6002   -0.7363 H         1 UNK         0.0873 
     77 H77        29.6774   24.9058   -1.2425 H         1 UNK         0.0745 
     78 H78        31.3634   24.8369   -0.8675 H         1 UNK         0.0745 
     79 H79        31.7245   23.9096    1.3159 H         1 UNK         0.0705 
     80 H80        32.4449   25.4898    1.5329 H         1 UNK         0.0705 
     81 H81        32.3326   26.6276    3.7183 H         1 UNK         0.1334 
     82 H82        30.7748   24.4755    7.0800 H         1 UNK         0.1417 
     83 H83        30.3932   22.8482    3.1291 H         1 UNK         0.1562 
     84 H84        29.5584   22.4696    6.8091 H         1 UNK         0.0748 
     85 H85        30.3634   21.4502    5.6427 H         1 UNK         0.0748 
     86 H86        27.6602   24.1022    6.0404 H         1 UNK         0.0940 
     87 H87        26.2029   23.3766    5.4111 H         1 UNK         0.0940 
     88 H88        28.3782   24.6803    3.7066 H         1 UNK         0.0703 
     89 H89        27.4908   23.7627    1.9548 H         1 UNK         0.3081 
     90 H90        26.2053   22.5699    0.6386 H         1 UNK         0.0719 
     91 H91        23.1980   22.4545    1.2055 H         1 UNK         0.0809 
     92 H92        24.0746   21.5417   -0.0234 H         1 UNK         0.0809 
     93 H93        24.3613   21.2250    1.6792 H         1 UNK         0.0809 
     94 H94        24.1152   23.9942   -0.5236 H         1 UNK         0.2990 
     95 H95        25.1320   25.5551   -2.3200 H         1 UNK         0.0690 
     96 H96        23.5363   27.4746   -1.7919 H         1 UNK         0.0788 
     97 H97        23.8821   27.2727   -0.0783 H         1 UNK         0.0788 
     98 H98        23.0768   25.9974   -0.9738 H         1 UNK         0.0788 
     99 H99        26.9732   27.0869   -0.8736 H         1 UNK         0.2993 
    100 H100       27.9313   29.0876   -3.5820 H         1 UNK         0.0949 
    101 H101       26.4773   30.7548   -2.4262 H         1 UNK         0.0767 
    102 H102       27.0148   30.1681   -0.8601 H         1 UNK         0.0767 
    103 H103       28.1569   30.9475   -1.9548 H         1 UNK         0.0767 
    104 H104       29.0530   28.7448   -0.9770 H         1 UNK         0.3013 
    105 H105       27.0808   26.3204    2.1597 H         1 UNK         0.3121 
    106 H106       25.7389   28.4126    3.6909 H         1 UNK         0.0774 
    107 H107       26.2203   29.7556    1.6205 H         1 UNK         0.0815 
    108 H108       27.2173   28.4485    0.9949 H         1 UNK         0.0815 
    109 H109       25.4819   28.2202    1.2090 H         1 UNK         0.0815 
    110 H110       26.7646   30.5325    4.0406 H         1 UNK         0.2987 
    111 H111       29.3965   30.3991    5.2734 H         1 UNK         0.0949 
    112 H112       28.9062   32.7894    5.8119 H         1 UNK         0.0806 
    113 H113       27.4480   32.7257    4.8330 H         1 UNK         0.0806 
    114 H114       27.5842   31.7383    6.2882 H         1 UNK         0.0806 
    115 H115       30.4813   29.6539    3.2808 H         1 UNK         0.3010 
    116 H116       31.7167   31.8642    1.8074 H         1 UNK         0.0829 
    117 H117       29.7908   31.2424    0.3326 H         1 UNK         0.0813 
    118 H118       31.2763   30.6543   -0.3969 H         1 UNK         0.0813 
    119 H119       30.2182   29.5382    0.4605 H         1 UNK         0.0813 
    120 H120       33.5538   30.9758    0.5094 H         1 UNK         0.3038 
    121 H121       35.5369   30.0087    0.3624 H         1 UNK         0.0769 
    122 H122       33.9428   27.4550    0.9618 H         1 UNK         0.0811 
    123 H123       35.6106   27.4787    0.3923 H         1 UNK         0.0811 
    124 H124       34.3333   28.1380   -0.6068 H         1 UNK         0.0811 
    125 H125       34.8338   27.6084    2.8016 H         1 UNK         0.3204 
    126 H126       37.1074   28.3911    4.4284 H         1 UNK         0.0748 
    127 H127       36.5999   26.0100    4.0557 H         1 UNK         0.0771 
    128 H128       36.4216   26.3684    5.7638 H         1 UNK         0.0771 
    129 H129       34.9929   26.1921    4.7534 H         1 UNK         0.0771 
    130 H130       33.7792   29.3616    4.4294 H         1 UNK         0.2980 
    131 H131       34.1505   30.7340    6.9816 H         1 UNK         0.0545 
    132 H132       31.4300   32.9804    5.8655 H         1 UNK         0.3459 
    133 H133       31.5442   31.8769    7.2122 H         1 UNK         0.3459 
    134 H134       33.1050   28.7629    7.8388 H         1 UNK         0.0616 
    135 H135       31.9071   30.0065    7.8697 H         1 UNK         0.0616 
    136 H136       33.2509   26.8401    6.2303 H         1 UNK         0.0634 
    137 H137       32.1076   26.4051    7.4741 H         1 UNK         0.0634 
@<TRIPOS>BOND
     1    1    2 1    
     2    1   72 1    
     3    1   73 1    
     4    1   74 1    
     5    2    3 2    
     6    2    4 am   BACKBONE|DICT|INTERRES
     7    4    5 1    
     8    4   75 1    
     9    5    6 1    
    10    5   35 1    
    11    5   76 1    
    12    6    7 1    
    13    6   77 1    
    14    6   78 1    
    15    7    8 1    
    16    8    9 1    
    17    8   79 1    
    18    8   80 1    
    19    9   10 ar   
    20    9   14 ar   
    21   10   11 ar   
    22   10   81 1    
    23   11   12 ar   
    24   11   71 1    
    25   12   13 ar   
    26   12   82 1    
    27   13   14 ar   
    28   13   15 1    
    29   14   83 1    
    30   15   16 1    
    31   15   84 1    
    32   15   85 1    
    33   16   17 1    
    34   17   18 1    
    35   17   86 1    
    36   17   87 1    
    37   18   19 1    
    38   18   37 1    
    39   18   88 1    
    40   19   20 am   BACKBONE|DICT|INTERRES
    41   19   89 1    
    42   20   21 2    
    43   20   22 1    
    44   22   23 1    
    45   22   24 1    
    46   22   90 1    
    47   23   91 1    
    48   23   92 1    
    49   23   93 1    
    50   24   25 am   BACKBONE|DICT|INTERRES
    51   24   94 1    
    52   25   26 2    
    53   25   27 1    
    54   27   28 1    
    55   27   29 1    
    56   27   95 1    
    57   28   96 1    
    58   28   97 1    
    59   28   98 1    
    60   29   30 am   BACKBONE|DICT|INTERRES
    61   29   99 1    
    62   30   31 2    
    63   30   32 1    
    64   32   33 1    
    65   32   34 1    
    66   32  100 1    
    67   33  101 1    
    68   33  102 1    
    69   33  103 1    
    70   34   35 am   BACKBONE|DICT|INTERRES
    71   34  104 1    
    72   35   36 2    
    73   37   38 2    
    74   37   39 am   BACKBONE|DICT|INTERRES
    75   39   40 1    
    76   39  105 1    
    77   40   41 1    
    78   40   42 1    
    79   40  106 1    
    80   41  107 1    
    81   41  108 1    
    82   41  109 1    
    83   42   43 2    
    84   42   44 am   BACKBONE|DICT|INTERRES
    85   44   45 1    
    86   44  110 1    
    87   45   46 1    
    88   45   47 1    
    89   45  111 1    
    90   46  112 1    
    91   46  113 1    
    92   46  114 1    
    93   47   48 2    
    94   47   49 am   BACKBONE|DICT|INTERRES
    95   49   50 1    
    96   49  115 1    
    97   50   51 1    
    98   50   52 1    
    99   50  116 1    
   100   51  117 1    
   101   51  118 1    
   102   51  119 1    
   103   52   53 2    
   104   52   54 am   BACKBONE|DICT|INTERRES
   105   54   55 1    
   106   54  120 1    
   107   55   56 1    
   108   55   57 1    
   109   55  121 1    
   110   56  122 1    
   111   56  123 1    
   112   56  124 1    
   113   57   58 2    
   114   57   59 am   BACKBONE|DICT|INTERRES
   115   59   60 1    
   116   59  125 1    
   117   60   61 1    
   118   60   62 1    
   119   60  126 1    
   120   61  127 1    
   121   61  128 1    
   122   61  129 1    
   123   62   63 2    
   124   62   64 am   BACKBONE|DICT|INTERRES
   125   64   65 1    
   126   64  130 1    
   127   65   66 1    
   128   65   69 1    
   129   65  131 1    
   130   66   67 am   BACKBONE|DICT|INTERRES
   131   66   68 2    
   132   67  132 1    
   133   67  133 1    
   134   69   70 1    
   135   69  134 1    
   136   69  135 1    
   137   70   71 1    
   138   71  136 1    
   139   71  137 1    
@<TRIPOS>SUBSTRUCTURE
     1 UNK         1 GROUP             0       ****    0 ROOT    
