@<TRIPOS>MOLECULE
3R136
137   139    1
SMALL
USER_CHARGES


@<TRIPOS>ATOM
      1 CA         32.0928   23.4226    5.4437 C.3       0 UNK        -0.1979 
      2 C          30.6304   23.5093    5.0424 C.2       0 UNK         0.4864 
      3 O          29.7598   23.6160    5.9071 O.2       0 UNK        -0.5359 
      4 N          30.3576   23.4585    3.7352 N.am      1 UNK        -0.4318 
      5 CA         29.0122   23.4387    3.1645 C.3       1 UNK         0.0824 
      6 C6         28.9164   22.5966    1.8552 C.3       12 UNK        -0.0944 
      7 S7         30.0519   21.1632    1.7800 S.3       12 UNK        -0.2672 
      8 C8         31.2465   21.7036    0.5089 C.3       12 UNK         0.0333 
      9 C9         32.1334   22.8631    0.9582 C.ar      12 UNK        -0.0807 
     10 C10        33.3876   22.6199    1.5281 C.ar      12 UNK        -0.0894 
     11 C11        34.2477   23.6767    1.8545 C.ar      12 UNK        -0.0804 
     12 C12        33.8228   24.9942    1.6300 C.ar      12 UNK        -0.0824 
     13 C13        32.5623   25.2518    1.0832 C.ar      12 UNK        -0.0762 
     14 C14        31.7327   24.1838    0.7382 C.ar      12 UNK        -0.0782 
     15 C15        32.0904   26.6782    0.8415 C.3       12 UNK         0.0230 
     16 S16        32.2398   27.1341   -0.9107 S.3       12 UNK        -0.2608 
     17 C17        31.3691   28.7385   -0.9381 C.3       12 UNK        -0.0989 
     18 CA         30.1461   28.7195   -1.8942 C.3       5 UNK         0.0716 
     19 N          29.1238   27.7570   -1.4631 N.am      5 UNK        -0.4135 
     20 C          28.3766   27.0046   -2.2825 C.2       4 UNK         0.5031 
     21 O          28.5047   26.9836   -3.5068 O.2       4 UNK        -0.5229 
     22 CA         27.2591   26.1717   -1.6284 C.3       4 UNK         0.0329 
     23 CB         27.7799   24.7755   -1.2605 C.3       4 UNK        -0.2001 
     24 N          26.6745   26.8120   -0.4426 N.am      4 UNK        -0.4303 
     25 C          25.9822   27.9611   -0.4614 C.2       3 UNK         0.5044 
     26 O          25.7842   28.6050   -1.4917 O.2       3 UNK        -0.5152 
     27 CA         25.4666   28.5388    0.8696 C.3       3 UNK         0.0319 
     28 CB         23.9527   28.3047    1.0408 C.3       3 UNK        -0.2001 
     29 N          26.2344   28.1289    2.0539 N.am      3 UNK        -0.4354 
     30 C          26.2534   26.9391    2.6683 C.2       2 UNK         0.4964 
     31 O          25.5617   25.9760    2.3307 O.2       2 UNK        -0.5047 
     32 CA         27.2322   26.7947    3.8484 C.3       2 UNK         0.0288 
     33 CB         26.5294   27.1179    5.1765 C.3       2 UNK        -0.2113 
     34 N          27.8059   25.4462    3.9208 N.am      2 UNK        -0.4145 
     35 C          28.5548   24.8953    2.9557 C.2       1 UNK         0.5006 
     36 O          28.9105   25.5074    1.9458 O.2       1 UNK        -0.5103 
     37 C          29.5538   30.1353   -2.1049 C.2       5 UNK         0.5055 
     38 O          30.3207   31.0959   -2.1870 O.2       5 UNK        -0.5220 
     39 N          28.2164   30.2543   -2.1845 N.am      6 UNK        -0.4450 
     40 CA         27.4331   31.4882   -2.3463 C.3       6 UNK         0.0367 
     41 CB         27.7379   32.1728   -3.6963 C.3       6 UNK        -0.1929 
     42 C          27.5407   32.4523   -1.1470 C.2       6 UNK         0.5070 
     43 O          27.3467   33.6582   -1.3093 O.2       6 UNK        -0.5237 
     44 N          27.8270   31.9072    0.0399 N.am      7 UNK        -0.4739 
     45 CA         27.9503   32.6199    1.3060 C.3       7 UNK         0.0276 
     46 CB         29.3476   33.2601    1.4110 C.3       7 UNK        -0.1927 
     47 C          27.7264   31.6228    2.4467 C.2       7 UNK         0.5013 
     48 O          27.8745   30.4143    2.2428 O.2       7 UNK        -0.5193 
     49 N          27.4003   32.1445    3.6356 N.am      8 UNK        -0.4253 
     50 CA         27.2816   31.3587    4.8685 C.3       8 UNK         0.0242 
     51 CB         26.5221   32.1776    5.9247 C.3       8 UNK        -0.2000 
     52 C          28.6449   30.8979    5.4183 C.2       8 UNK         0.4948 
     53 O          28.6971   29.8983    6.1354 O.2       8 UNK        -0.5275 
     54 N          29.7156   31.6302    5.0776 N.am      9 UNK        -0.4246 
     55 CA         31.1014   31.2791    5.3809 C.3       9 UNK         0.0261 
     56 CB         32.0024   32.4971    5.1184 C.3       9 UNK        -0.1959 
     57 C          31.5540   30.0779    4.5360 C.2       9 UNK         0.5033 
     58 O          31.2786   30.0372    3.3344 O.2       9 UNK        -0.5390 
     59 N          32.2563   29.1409    5.1757 N.am      10 UNK        -0.4215 
     60 CA         32.7635   27.9042    4.5914 C.3       10 UNK         0.0240 
     61 CB         31.6064   26.9010    4.3933 C.3       10 UNK        -0.1982 
     62 C          33.8757   27.3551    5.4976 C.2       10 UNK         0.4970 
     63 O          34.2702   28.0257    6.4551 O.2       10 UNK        -0.4916 
     64 N          34.3571   26.1480    5.1809 N.am      11 UNK        -0.4279 
     65 CA         35.4524   25.4371    5.8659 C.3       11 UNK         0.1003 
     66 C          35.2134   25.0495    7.3596 C.2       11 UNK         0.5709 
     67 N          34.0532   25.3038    7.9512 N.am      11 UNK        -0.7358 
     68 O          36.1107   24.5086    8.0017 O.2       11 UNK        -0.4999 
     69 C69        35.9118   24.2028    5.0433 C.3       12 UNK        -0.0954 
     70 S70        36.4661   24.6360    3.3609 S.3       12 UNK        -0.2268 
     71 C71        35.6599   23.3489    2.3451 C.3       12 UNK         0.0203 
     72 H72        32.2731   22.5122    6.0145 H         1 UNK         0.0888 
     73 H73        32.3521   24.2729    6.0693 H         1 UNK         0.0888 
     74 H74        32.7506   23.4164    4.5753 H         1 UNK         0.0888 
     75 H75        31.1058   23.3800    3.0596 H         1 UNK         0.3017 
     76 H76        28.3384   22.9689    3.8849 H         1 UNK         0.0873 
     77 H77        27.8984   22.2178    1.7506 H         1 UNK         0.0745 
     78 H78        29.0738   23.1942    0.9610 H         1 UNK         0.0745 
     79 H79        31.8706   20.8500    0.2396 H         1 UNK         0.0705 
     80 H80        30.7082   21.9742   -0.4010 H         1 UNK         0.0705 
     81 H81        33.7145   21.5991    1.6747 H         1 UNK         0.1334 
     82 H82        34.4802   25.8242    1.8473 H         1 UNK         0.1417 
     83 H83        30.7802   24.3951    0.2757 H         1 UNK         0.1562 
     84 H84        32.6656   27.3837    1.4415 H         1 UNK         0.0748 
     85 H85        31.0519   26.7792    1.1577 H         1 UNK         0.0748 
     86 H86        32.0996   29.4846   -1.2568 H         1 UNK         0.0940 
     87 H87        31.0674   29.0279    0.0710 H         1 UNK         0.0940 
     88 H88        30.5172   28.4172   -2.8759 H         1 UNK         0.0703 
     89 H89        28.9551   27.6931   -0.4696 H         1 UNK         0.3081 
     90 H90        26.4606   26.0535   -2.3640 H         1 UNK         0.0719 
     91 H91        28.6330   24.8397   -0.5880 H         1 UNK         0.0809 
     92 H92        27.0109   24.1716   -0.7787 H         1 UNK         0.0809 
     93 H93        28.1092   24.2364   -2.1497 H         1 UNK         0.0809 
     94 H94        26.7805   26.3319    0.4425 H         1 UNK         0.2990 
     95 H95        25.6130   29.6178    0.8006 H         1 UNK         0.0690 
     96 H96        23.5853   28.7434    1.9685 H         1 UNK         0.0788 
     97 H97        23.6974   27.2449    1.0440 H         1 UNK         0.0788 
     98 H98        23.3967   28.7643    0.2225 H         1 UNK         0.0788 
     99 H99        26.8862   28.8449    2.3722 H         1 UNK         0.2993 
    100 H100       28.0555   27.4997    3.7075 H         1 UNK         0.0949 
    101 H101       26.0934   28.1173    5.1565 H         1 UNK         0.0767 
    102 H102       25.7229   26.4145    5.3881 H         1 UNK         0.0767 
    103 H103       27.2304   27.0911    6.0113 H         1 UNK         0.0767 
    104 H104       27.5795   24.8958    4.7367 H         1 UNK         0.3013 
    105 H105       27.6545   29.4141   -2.1056 H         1 UNK         0.3121 
    106 H106       26.3888   31.1739   -2.3744 H         1 UNK         0.0774 
    107 H107       27.6474   31.4722   -4.5263 H         1 UNK         0.0815 
    108 H108       28.7426   32.5955   -3.7202 H         1 UNK         0.0815 
    109 H109       27.0402   32.9891   -3.8866 H         1 UNK         0.0815 
    110 H110       27.9423   30.9052    0.1180 H         1 UNK         0.2987 
    111 H111       27.1804   33.3927    1.3601 H         1 UNK         0.0949 
    112 H112       30.1359   32.5059    1.3887 H         1 UNK         0.0806 
    113 H113       29.5300   33.9559    0.5919 H         1 UNK         0.0806 
    114 H114       29.4577   33.8222    2.3388 H         1 UNK         0.0806 
    115 H115       27.2766   33.1438    3.7184 H         1 UNK         0.3010 
    116 H116       26.6977   30.4625    4.6488 H         1 UNK         0.0829 
    117 H117       25.5261   32.4504    5.5753 H         1 UNK         0.0813 
    118 H118       26.3947   31.6039    6.8440 H         1 UNK         0.0813 
    119 H119       27.0516   33.0951    6.1846 H         1 UNK         0.0813 
    120 H120       29.5764   32.4135    4.4588 H         1 UNK         0.3038 
    121 H121       31.1643   31.0202    6.4402 H         1 UNK         0.0769 
    122 H122       31.9709   32.8046    4.0721 H         1 UNK         0.0811 
    123 H123       33.0420   32.2718    5.3599 H         1 UNK         0.0811 
    124 H124       31.7063   33.3502    5.7292 H         1 UNK         0.0811 
    125 H125       32.5275   29.2790    6.1422 H         1 UNK         0.3204 
    126 H126       33.2170   28.1368    3.6264 H         1 UNK         0.0748 
    127 H127       30.8120   27.3216    3.7760 H         1 UNK         0.0771 
    128 H128       31.9423   25.9974    3.8870 H         1 UNK         0.0771 
    129 H129       31.1604   26.6073    5.3442 H         1 UNK         0.0771 
    130 H130       33.9885   25.6777    4.3695 H         1 UNK         0.2980 
    131 H131       36.2910   26.1353    5.8943 H         1 UNK         0.0545 
    132 H132       33.9298   25.0470    8.9177 H         1 UNK         0.3459 
    133 H133       33.3326   25.8120    7.4676 H         1 UNK         0.3459 
    134 H134       36.7501   23.7026    5.5317 H         1 UNK         0.0616 
    135 H135       35.1105   23.4649    4.9898 H         1 UNK         0.0616 
    136 H136       36.2828   23.1841    1.4652 H         1 UNK         0.0634 
    137 H137       35.6631   22.4077    2.8971 H         1 UNK         0.0634 
@<TRIPOS>BOND
     1    1    2 1    
     2    1   72 1    
     3    1   73 1    
     4    1   74 1    
     5    2    3 2    
     6    2    4 am   BACKBONE|DICT|INTERRES
     7    4    5 1    
     8    4   75 1    
     9    5    6 1    
    10    5   35 1    
    11    5   76 1    
    12    6    7 1    
    13    6   77 1    
    14    6   78 1    
    15    7    8 1    
    16    8    9 1    
    17    8   79 1    
    18    8   80 1    
    19    9   10 ar   
    20    9   14 ar   
    21   10   11 ar   
    22   10   81 1    
    23   11   12 ar   
    24   11   71 1    
    25   12   13 ar   
    26   12   82 1    
    27   13   14 ar   
    28   13   15 1    
    29   14   83 1    
    30   15   16 1    
    31   15   84 1    
    32   15   85 1    
    33   16   17 1    
    34   17   18 1    
    35   17   86 1    
    36   17   87 1    
    37   18   19 1    
    38   18   37 1    
    39   18   88 1    
    40   19   20 am   BACKBONE|DICT|INTERRES
    41   19   89 1    
    42   20   21 2    
    43   20   22 1    
    44   22   23 1    
    45   22   24 1    
    46   22   90 1    
    47   23   91 1    
    48   23   92 1    
    49   23   93 1    
    50   24   25 am   BACKBONE|DICT|INTERRES
    51   24   94 1    
    52   25   26 2    
    53   25   27 1    
    54   27   28 1    
    55   27   29 1    
    56   27   95 1    
    57   28   96 1    
    58   28   97 1    
    59   28   98 1    
    60   29   30 am   BACKBONE|DICT|INTERRES
    61   29   99 1    
    62   30   31 2    
    63   30   32 1    
    64   32   33 1    
    65   32   34 1    
    66   32  100 1    
    67   33  101 1    
    68   33  102 1    
    69   33  103 1    
    70   34   35 am   BACKBONE|DICT|INTERRES
    71   34  104 1    
    72   35   36 2    
    73   37   38 2    
    74   37   39 am   BACKBONE|DICT|INTERRES
    75   39   40 1    
    76   39  105 1    
    77   40   41 1    
    78   40   42 1    
    79   40  106 1    
    80   41  107 1    
    81   41  108 1    
    82   41  109 1    
    83   42   43 2    
    84   42   44 am   BACKBONE|DICT|INTERRES
    85   44   45 1    
    86   44  110 1    
    87   45   46 1    
    88   45   47 1    
    89   45  111 1    
    90   46  112 1    
    91   46  113 1    
    92   46  114 1    
    93   47   48 2    
    94   47   49 am   BACKBONE|DICT|INTERRES
    95   49   50 1    
    96   49  115 1    
    97   50   51 1    
    98   50   52 1    
    99   50  116 1    
   100   51  117 1    
   101   51  118 1    
   102   51  119 1    
   103   52   53 2    
   104   52   54 am   BACKBONE|DICT|INTERRES
   105   54   55 1    
   106   54  120 1    
   107   55   56 1    
   108   55   57 1    
   109   55  121 1    
   110   56  122 1    
   111   56  123 1    
   112   56  124 1    
   113   57   58 2    
   114   57   59 am   BACKBONE|DICT|INTERRES
   115   59   60 1    
   116   59  125 1    
   117   60   61 1    
   118   60   62 1    
   119   60  126 1    
   120   61  127 1    
   121   61  128 1    
   122   61  129 1    
   123   62   63 2    
   124   62   64 am   BACKBONE|DICT|INTERRES
   125   64   65 1    
   126   64  130 1    
   127   65   66 1    
   128   65   69 1    
   129   65  131 1    
   130   66   67 am   BACKBONE|DICT|INTERRES
   131   66   68 2    
   132   67  132 1    
   133   67  133 1    
   134   69   70 1    
   135   69  134 1    
   136   69  135 1    
   137   70   71 1    
   138   71  136 1    
   139   71  137 1    
@<TRIPOS>SUBSTRUCTURE
     1 UNK         1 GROUP             0       ****    0 ROOT    
