@<TRIPOS>MOLECULE
3R136
137   139    1
SMALL
USER_CHARGES


@<TRIPOS>ATOM
      1 CA         31.4229   20.2094   -2.2797 C.3       0 UNK        -0.1979 
      2 C          30.3982   21.2723   -1.9114 C.2       0 UNK         0.4864 
      3 O          29.5799   21.6509   -2.7519 O.2       0 UNK        -0.5359 
      4 N          30.4409   21.7616   -0.6654 N.am      1 UNK        -0.4318 
      5 CA         29.4917   22.7364   -0.1206 C.3       1 UNK         0.0824 
      6 C6         30.0904   23.5333    1.0677 C.3       12 UNK        -0.0944 
      7 S7         30.6767   22.5148    2.4673 S.3       12 UNK        -0.2672 
      8 C8         29.2740   22.5873    3.6321 C.3       12 UNK         0.0333 
      9 C9         28.9139   24.0076    4.0525 C.ar      12 UNK        -0.0807 
     10 C10        29.8348   24.7974    4.7470 C.ar      12 UNK        -0.0894 
     11 C11        29.4989   26.0932    5.1510 C.ar      12 UNK        -0.0804 
     12 C12        28.2302   26.6021    4.8522 C.ar      12 UNK        -0.0824 
     13 C13        27.2926   25.8137    4.1761 C.ar      12 UNK        -0.0762 
     14 C14        27.6426   24.5204    3.7767 C.ar      12 UNK        -0.0782 
     15 C15        25.8777   26.3243    3.9365 C.3       12 UNK         0.0230 
     16 S16        25.5299   26.6334    2.1766 S.3       12 UNK        -0.2608 
     17 C17        26.4487   28.1799    1.8717 C.3       12 UNK        -0.0989 
     18 CA         27.5803   27.9993    0.8291 C.3       5 UNK         0.0716 
     19 N          27.0636   27.6637   -0.4991 N.am      5 UNK        -0.4135 
     20 C          27.1636   26.4615   -1.0680 C.2       4 UNK         0.5031 
     21 O          27.7027   25.4905   -0.5271 O.2       4 UNK        -0.5229 
     22 CA         26.5668   26.3007   -2.4735 C.3       4 UNK         0.0329 
     23 CB         27.5439   26.7869   -3.5565 C.3       4 UNK        -0.2001 
     24 N          26.3040   24.8793   -2.6496 N.am      4 UNK        -0.4303 
     25 C          25.2753   24.3089   -3.2852 C.2       3 UNK         0.5044 
     26 O          24.4783   24.9174   -3.9996 O.2       3 UNK        -0.5152 
     27 CA         25.0880   22.7978   -3.0333 C.3       3 UNK         0.0319 
     28 CB         25.8564   21.9734   -4.0782 C.3       3 UNK        -0.2001 
     29 N          25.5384   22.4200   -1.6878 N.am      3 UNK        -0.4354 
     30 C          24.9057   22.7700   -0.5570 C.2       2 UNK         0.4964 
     31 O          23.7532   23.2020   -0.5302 O.2       2 UNK        -0.5047 
     32 CA         25.7123   22.7292    0.7511 C.3       2 UNK         0.0288 
     33 CB         25.4019   21.4803    1.6004 C.3       2 UNK        -0.2113 
     34 N          27.1491   22.9625    0.5330 N.am      2 UNK        -0.4145 
     35 C          28.1206   22.0988    0.2053 C.2       1 UNK         0.5006 
     36 O          27.9641   20.8779    0.1295 O.2       1 UNK        -0.5103 
     37 C          28.4063   29.2865    0.7002 C.2       5 UNK         0.5055 
     38 O          28.1041   30.1280   -0.1510 O.2       5 UNK        -0.5220 
     39 N          29.4145   29.4256    1.5653 N.am      6 UNK        -0.4450 
     40 CA         30.3061   30.5798    1.6405 C.3       6 UNK         0.0367 
     41 CB         31.4724   30.4102    0.6501 C.3       6 UNK        -0.1929 
     42 C          30.7424   30.7640    3.0987 C.2       6 UNK         0.5070 
     43 O          31.9395   30.7544    3.4043 O.2       6 UNK        -0.5237 
     44 N          29.7375   30.8967    3.9777 N.am      7 UNK        -0.4739 
     45 CA         29.8776   31.1164    5.4189 C.3       7 UNK         0.0276 
     46 CB         28.4839   31.2394    6.0541 C.3       7 UNK        -0.1927 
     47 C          30.7291   32.3602    5.7172 C.2       7 UNK         0.5013 
     48 O          30.4668   33.4206    5.1446 O.2       7 UNK        -0.5193 
     49 N          31.7652   32.1868    6.5490 N.am      8 UNK        -0.4253 
     50 CA         32.8480   33.1292    6.8734 C.3       8 UNK         0.0242 
     51 CB         32.3113   34.4113    7.5396 C.3       8 UNK        -0.2000 
     52 C          33.7812   33.4654    5.6915 C.2       8 UNK         0.4948 
     53 O          34.9941   33.5191    5.8934 O.2       8 UNK        -0.5275 
     54 N          33.2174   33.6693    4.4932 N.am      9 UNK        -0.4246 
     55 CA         33.9137   34.0034    3.2481 C.3       9 UNK         0.0261 
     56 CB         32.8814   34.2590    2.1375 C.3       9 UNK        -0.1959 
     57 C          34.9390   32.9443    2.8099 C.2       9 UNK         0.5033 
     58 O          36.0638   33.3090    2.4630 O.2       9 UNK        -0.5390 
     59 N          34.5424   31.6662    2.8529 N.am      10 UNK        -0.4215 
     60 CA         35.4192   30.5155    2.6208 C.3       10 UNK         0.0240 
     61 CB         34.9236   29.7081    1.4118 C.3       10 UNK        -0.1982 
     62 C          35.4874   29.6176    3.8622 C.2       10 UNK         0.4970 
     63 O          36.5512   29.0579    4.1299 O.2       10 UNK        -0.4916 
     64 N          34.3732   29.4937    4.5991 N.am      11 UNK        -0.4279 
     65 CA         34.2821   28.6837    5.8259 C.3       11 UNK         0.1003 
     66 C          35.0909   29.2326    7.0399 C.2       11 UNK         0.5709 
     67 N          35.5727   30.4700    7.0241 N.am      11 UNK        -0.7358 
     68 O          35.2860   28.5156    8.0183 O.2       11 UNK        -0.4999 
     69 C69        32.8115   28.4159    6.2353 C.3       12 UNK        -0.0954 
     70 S70        31.8198   27.6025    4.9375 S.3       12 UNK        -0.2268 
     71 C71        30.4883   26.9131    5.9649 C.3       12 UNK         0.0203 
     72 H72        30.9186   19.2886   -2.5713 H         1 UNK         0.0888 
     73 H73        32.0293   20.5476   -3.1195 H         1 UNK         0.0888 
     74 H74        32.0906   19.9820   -1.4488 H         1 UNK         0.0888 
     75 H75        31.1090   21.3949   -0.0023 H         1 UNK         0.3017 
     76 H76        29.3020   23.4620   -0.9144 H         1 UNK         0.0873 
     77 H77        30.9518   24.0981    0.7081 H         1 UNK         0.0745 
     78 H78        29.3938   24.2956    1.4183 H         1 UNK         0.0745 
     79 H79        29.5316   22.0125    4.5226 H         1 UNK         0.0705 
     80 H80        28.4163   22.0829    3.1857 H         1 UNK         0.0705 
     81 H81        30.8135   24.3996    4.9794 H         1 UNK         0.1334 
     82 H82        27.9612   27.5973    5.1791 H         1 UNK         0.1417 
     83 H83        26.9135   23.9083    3.2650 H         1 UNK         0.1562 
     84 H84        25.6824   27.2304    4.5123 H         1 UNK         0.0748 
     85 H85        25.1695   25.5794    4.3023 H         1 UNK         0.0748 
     86 H86        26.8525   28.5457    2.8176 H         1 UNK         0.0940 
     87 H87        25.7366   28.9373    1.5381 H         1 UNK         0.0940 
     88 H88        28.2548   27.2146    1.1810 H         1 UNK         0.0703 
     89 H89        26.6857   28.4429   -1.0208 H         1 UNK         0.3081 
     90 H90        25.6313   26.8616   -2.5288 H         1 UNK         0.0719 
     91 H91        27.7568   27.8507   -3.4448 H         1 UNK         0.0809 
     92 H92        28.4952   26.2550   -3.5085 H         1 UNK         0.0809 
     93 H93        27.1304   26.6420   -4.5548 H         1 UNK         0.0809 
     94 H94        26.8791   24.3001   -2.0530 H         1 UNK         0.2990 
     95 H95        24.0241   22.5685   -3.1247 H         1 UNK         0.0690 
     96 H96        26.9315   22.1527   -4.0260 H         1 UNK         0.0788 
     97 H97        25.5318   22.2259   -5.0887 H         1 UNK         0.0788 
     98 H98        25.6880   20.9050   -3.9419 H         1 UNK         0.0788 
     99 H99        26.4584   22.0089   -1.6124 H         1 UNK         0.2993 
    100 H100       25.3773   23.5931    1.3275 H         1 UNK         0.0949 
    101 H101       25.5890   20.5553    1.0547 H         1 UNK         0.0767 
    102 H102       25.9943   21.4608    2.5149 H         1 UNK         0.0767 
    103 H103       24.3515   21.4685    1.8936 H         1 UNK         0.0767 
    104 H104       27.3941   23.9502    0.4673 H         1 UNK         0.3013 
    105 H105       29.5858   28.7008    2.2506 H         1 UNK         0.3121 
    106 H106       29.7609   31.4870    1.3702 H         1 UNK         0.0774 
    107 H107       32.2299   31.1831    0.7826 H         1 UNK         0.0815 
    108 H108       31.9532   29.4407    0.7701 H         1 UNK         0.0815 
    109 H109       31.1225   30.4766   -0.3801 H         1 UNK         0.0815 
    110 H110       28.7953   30.9141    3.6160 H         1 UNK         0.2987 
    111 H111       30.3627   30.2345    5.8356 H         1 UNK         0.0949 
    112 H112       27.8892   30.3411    5.8874 H         1 UNK         0.0806 
    113 H113       28.5582   31.3814    7.1331 H         1 UNK         0.0806 
    114 H114       27.9308   32.0892    5.6516 H         1 UNK         0.0806 
    115 H115       31.8783   31.2716    6.9598 H         1 UNK         0.3010 
    116 H116       33.4646   32.6163    7.6137 H         1 UNK         0.0829 
    117 H117       31.7025   34.1792    8.4134 H         1 UNK         0.0813 
    118 H118       33.1327   35.0452    7.8763 H         1 UNK         0.0813 
    119 H119       31.7050   35.0072    6.8569 H         1 UNK         0.0813 
    120 H120       32.2023   33.6170    4.4550 H         1 UNK         0.3038 
    121 H121       34.4595   34.9327    3.4237 H         1 UNK         0.0769 
    122 H122       32.2297   35.0960    2.3890 H         1 UNK         0.0811 
    123 H123       33.3727   34.5038    1.1947 H         1 UNK         0.0811 
    124 H124       32.2508   33.3873    1.9618 H         1 UNK         0.0811 
    125 H125       33.5801   31.4615    3.1196 H         1 UNK         0.3204 
    126 H126       36.4361   30.8510    2.4071 H         1 UNK         0.0748 
    127 H127       34.7649   30.3441    0.5408 H         1 UNK         0.0771 
    128 H128       35.6527   28.9469    1.1315 H         1 UNK         0.0771 
    129 H129       33.9912   29.1909    1.6341 H         1 UNK         0.0771 
    130 H130       33.5106   29.9241    4.2842 H         1 UNK         0.2980 
    131 H131       34.7286   27.7148    5.5940 H         1 UNK         0.0545 
    132 H132       35.4417   31.0720    6.2265 H         1 UNK         0.3459 
    133 H133       36.0989   30.7989    7.8178 H         1 UNK         0.3459 
    134 H134       32.7849   27.7805    7.1227 H         1 UNK         0.0616 
    135 H135       32.3240   29.3474    6.5169 H         1 UNK         0.0616 
    136 H136       29.9777   27.7277    6.4808 H         1 UNK         0.0634 
    137 H137       30.9219   26.2807    6.7411 H         1 UNK         0.0634 
@<TRIPOS>BOND
     1    1    2 1    
     2    1   72 1    
     3    1   73 1    
     4    1   74 1    
     5    2    3 2    
     6    2    4 am   BACKBONE|DICT|INTERRES
     7    4    5 1    
     8    4   75 1    
     9    5    6 1    
    10    5   35 1    
    11    5   76 1    
    12    6    7 1    
    13    6   77 1    
    14    6   78 1    
    15    7    8 1    
    16    8    9 1    
    17    8   79 1    
    18    8   80 1    
    19    9   10 ar   
    20    9   14 ar   
    21   10   11 ar   
    22   10   81 1    
    23   11   12 ar   
    24   11   71 1    
    25   12   13 ar   
    26   12   82 1    
    27   13   14 ar   
    28   13   15 1    
    29   14   83 1    
    30   15   16 1    
    31   15   84 1    
    32   15   85 1    
    33   16   17 1    
    34   17   18 1    
    35   17   86 1    
    36   17   87 1    
    37   18   19 1    
    38   18   37 1    
    39   18   88 1    
    40   19   20 am   BACKBONE|DICT|INTERRES
    41   19   89 1    
    42   20   21 2    
    43   20   22 1    
    44   22   23 1    
    45   22   24 1    
    46   22   90 1    
    47   23   91 1    
    48   23   92 1    
    49   23   93 1    
    50   24   25 am   BACKBONE|DICT|INTERRES
    51   24   94 1    
    52   25   26 2    
    53   25   27 1    
    54   27   28 1    
    55   27   29 1    
    56   27   95 1    
    57   28   96 1    
    58   28   97 1    
    59   28   98 1    
    60   29   30 am   BACKBONE|DICT|INTERRES
    61   29   99 1    
    62   30   31 2    
    63   30   32 1    
    64   32   33 1    
    65   32   34 1    
    66   32  100 1    
    67   33  101 1    
    68   33  102 1    
    69   33  103 1    
    70   34   35 am   BACKBONE|DICT|INTERRES
    71   34  104 1    
    72   35   36 2    
    73   37   38 2    
    74   37   39 am   BACKBONE|DICT|INTERRES
    75   39   40 1    
    76   39  105 1    
    77   40   41 1    
    78   40   42 1    
    79   40  106 1    
    80   41  107 1    
    81   41  108 1    
    82   41  109 1    
    83   42   43 2    
    84   42   44 am   BACKBONE|DICT|INTERRES
    85   44   45 1    
    86   44  110 1    
    87   45   46 1    
    88   45   47 1    
    89   45  111 1    
    90   46  112 1    
    91   46  113 1    
    92   46  114 1    
    93   47   48 2    
    94   47   49 am   BACKBONE|DICT|INTERRES
    95   49   50 1    
    96   49  115 1    
    97   50   51 1    
    98   50   52 1    
    99   50  116 1    
   100   51  117 1    
   101   51  118 1    
   102   51  119 1    
   103   52   53 2    
   104   52   54 am   BACKBONE|DICT|INTERRES
   105   54   55 1    
   106   54  120 1    
   107   55   56 1    
   108   55   57 1    
   109   55  121 1    
   110   56  122 1    
   111   56  123 1    
   112   56  124 1    
   113   57   58 2    
   114   57   59 am   BACKBONE|DICT|INTERRES
   115   59   60 1    
   116   59  125 1    
   117   60   61 1    
   118   60   62 1    
   119   60  126 1    
   120   61  127 1    
   121   61  128 1    
   122   61  129 1    
   123   62   63 2    
   124   62   64 am   BACKBONE|DICT|INTERRES
   125   64   65 1    
   126   64  130 1    
   127   65   66 1    
   128   65   69 1    
   129   65  131 1    
   130   66   67 am   BACKBONE|DICT|INTERRES
   131   66   68 2    
   132   67  132 1    
   133   67  133 1    
   134   69   70 1    
   135   69  134 1    
   136   69  135 1    
   137   70   71 1    
   138   71  136 1    
   139   71  137 1    
@<TRIPOS>SUBSTRUCTURE
     1 UNK         1 GROUP             0       ****    0 ROOT    
