@<TRIPOS>MOLECULE
3R136
137   139    1
SMALL
USER_CHARGES


@<TRIPOS>ATOM
      1 CA         24.9734   26.2036    1.8237 C.3       0 UNK        -0.1979 
      2 C          25.9979   25.0806    1.7839 C.2       0 UNK         0.4864 
      3 O          26.4524   24.7003    0.7023 O.2       0 UNK        -0.5359 
      4 N          26.3548   24.5419    2.9580 N.am      1 UNK        -0.4318 
      5 CA         27.3319   23.4705    3.1927 C.3       1 UNK         0.0824 
      6 C6         28.7645   23.8344    2.7122 C.3       12 UNK        -0.0944 
      7 S7         30.0531   23.0592    3.7441 S.3       12 UNK        -0.2672 
      8 C8         30.8452   24.5122    4.5047 C.3       12 UNK         0.0333 
      9 C9         31.7450   25.2382    3.5150 C.ar      12 UNK        -0.0807 
     10 C10        33.0353   24.7606    3.2682 C.ar      12 UNK        -0.0894 
     11 C11        33.8755   25.4178    2.3649 C.ar      12 UNK        -0.0804 
     12 C12        33.4131   26.5580    1.7013 C.ar      12 UNK        -0.0824 
     13 C13        32.1233   27.0437    1.9368 C.ar      12 UNK        -0.0762 
     14 C14        31.2949   26.3831    2.8493 C.ar      12 UNK        -0.0782 
     15 C15        31.6505   28.3111    1.2414 C.3       12 UNK         0.0230 
     16 S16        30.9977   27.9668   -0.4201 S.3       12 UNK        -0.2608 
     17 C17        29.2613   27.5339   -0.0643 C.3       12 UNK        -0.0989 
     18 CA         28.2775   28.5672   -0.6798 C.3       5 UNK         0.0716 
     19 N          26.9490   28.0150   -0.9215 N.am      5 UNK        -0.4135 
     20 C          26.6245   27.1191   -1.8560 C.2       4 UNK         0.5031 
     21 O          27.4290   26.6116   -2.6422 O.2       4 UNK        -0.5229 
     22 CA         25.1454   26.7329   -1.9466 C.3       4 UNK         0.0329 
     23 CB         24.4350   27.4951   -3.0786 C.3       4 UNK        -0.2001 
     24 N          25.0797   25.2977   -2.1888 N.am      4 UNK        -0.4303 
     25 C          24.1146   24.4780   -1.7623 C.2       3 UNK         0.5044 
     26 O          23.0972   24.8514   -1.1774 O.2       3 UNK        -0.5152 
     27 CA         24.3472   22.9815   -1.9880 C.3       3 UNK         0.0319 
     28 CB         24.9552   22.6634   -3.3722 C.3       3 UNK        -0.2001 
     29 N          25.2024   22.4844   -0.9119 N.am      3 UNK        -0.4354 
     30 C          25.3087   21.1957   -0.5543 C.2       2 UNK         0.4964 
     31 O          24.6792   20.2901   -1.1034 O.2       2 UNK        -0.5047 
     32 CA         26.2647   20.8263    0.5946 C.3       2 UNK         0.0288 
     33 CB         27.4749   20.0332    0.0692 C.3       2 UNK        -0.2113 
     34 N          26.7432   21.9970    1.3281 N.am      2 UNK        -0.4145 
     35 C          26.8496   22.1055    2.6563 C.2       1 UNK         0.5006 
     36 O          26.5674   21.2032    3.4472 O.2       1 UNK        -0.5103 
     37 C          28.0823   29.8036    0.2146 C.2       5 UNK         0.5055 
     38 O          27.1121   29.8494    0.9779 O.2       5 UNK        -0.5220 
     39 N          28.9836   30.7861    0.0986 N.am      6 UNK        -0.4450 
     40 CA         28.9585   32.0201    0.8844 C.3       6 UNK         0.0367 
     41 CB         29.8024   33.0942    0.1777 C.3       6 UNK        -0.1929 
     42 C          29.4910   31.7659    2.3004 C.2       6 UNK         0.5070 
     43 O          30.6250   31.3069    2.4411 O.2       6 UNK        -0.5237 
     44 N          28.6951   32.1068    3.3229 N.am      7 UNK        -0.4739 
     45 CA         29.0249   31.9159    4.7429 C.3       7 UNK         0.0276 
     46 CB         27.8231   32.3288    5.6070 C.3       7 UNK        -0.1927 
     47 C          30.2963   32.6544    5.2001 C.2       7 UNK         0.5013 
     48 O          31.0040   32.1590    6.0763 O.2       7 UNK        -0.5193 
     49 N          30.5926   33.7954    4.5630 N.am      8 UNK        -0.4253 
     50 CA         31.8203   34.5712    4.7583 C.3       8 UNK         0.0242 
     51 CB         31.6600   35.9381    4.0723 C.3       8 UNK        -0.2000 
     52 C          33.0942   33.8641    4.2528 C.2       8 UNK         0.4948 
     53 O          34.1881   34.2435    4.6722 O.2       8 UNK        -0.5275 
     54 N          32.9414   32.8663    3.3709 N.am      9 UNK        -0.4246 
     55 CA         34.0255   32.0800    2.7815 C.3       9 UNK         0.0261 
     56 CB         33.8726   32.1171    1.2492 C.3       9 UNK        -0.1959 
     57 C          34.0368   30.6299    3.3006 C.2       9 UNK         0.5033 
     58 O          34.7403   29.8019    2.7196 O.2       9 UNK        -0.5390 
     59 N          33.2565   30.3281    4.3510 N.am      10 UNK        -0.4215 
     60 CA         33.1130   28.9881    4.9224 C.3       10 UNK         0.0240 
     61 CB         31.9905   28.9839    5.9708 C.3       10 UNK        -0.1982 
     62 C          34.4226   28.4478    5.5158 C.2       10 UNK         0.4970 
     63 O          35.0928   29.1612    6.2658 O.2       10 UNK        -0.4916 
     64 N          34.7399   27.1915    5.1835 N.am      11 UNK        -0.4279 
     65 CA         35.9435   26.4802    5.6422 C.3       11 UNK         0.1003 
     66 C          35.8951   26.0103    7.1258 C.2       11 UNK         0.5709 
     67 N          34.7564   26.0613    7.8074 N.am      11 UNK        -0.7358 
     68 O          36.9159   25.5979    7.6717 O.2       11 UNK        -0.4999 
     69 C69        36.3099   25.3025    4.7000 C.3       12 UNK        -0.0954 
     70 S70        36.5608   25.8272    2.9689 S.3       12 UNK        -0.2268 
     71 C71        35.2745   24.8863    2.0872 C.3       12 UNK         0.0203 
     72 H72        24.5963   26.3753    2.8317 H         1 UNK         0.0888 
     73 H73        25.4206   27.1313    1.4698 H         1 UNK         0.0888 
     74 H74        24.1246   25.9608    1.1856 H         1 UNK         0.0888 
     75 H75        25.9078   24.8858    3.7970 H         1 UNK         0.3017 
     76 H76        27.3609   23.3766    4.2799 H         1 UNK         0.0873 
     77 H77        28.9344   23.5662    1.6680 H         1 UNK         0.0745 
     78 H78        28.8943   24.9151    2.7492 H         1 UNK         0.0745 
     79 H79        31.4379   24.1816    5.3591 H         1 UNK         0.0705 
     80 H80        30.0833   25.1824    4.9061 H         1 UNK         0.0705 
     81 H81        33.3802   23.8697    3.7756 H         1 UNK         0.1334 
     82 H82        34.0617   27.0746    1.0065 H         1 UNK         0.1417 
     83 H83        30.3041   26.7668    3.0477 H         1 UNK         0.1562 
     84 H84        32.4823   29.0110    1.1523 H         1 UNK         0.0748 
     85 H85        30.8951   28.8174    1.8423 H         1 UNK         0.0748 
     86 H86        29.0928   27.4085    1.0065 H         1 UNK         0.0940 
     87 H87        29.0983   26.5454   -0.4961 H         1 UNK         0.0940 
     88 H88        28.6572   28.9052   -1.6469 H         1 UNK         0.0703 
     89 H89        26.2377   28.4203   -0.3250 H         1 UNK         0.3081 
     90 H90        24.6594   26.9665   -0.9979 H         1 UNK         0.0719 
     91 H91        24.8869   27.2867   -4.0493 H         1 UNK         0.0809 
     92 H92        23.3801   27.2259   -3.1361 H         1 UNK         0.0809 
     93 H93        24.4867   28.5725   -2.9171 H         1 UNK         0.0809 
     94 H94        25.9116   24.9106   -2.6165 H         1 UNK         0.2990 
     95 H95        23.3721   22.4938   -1.9203 H         1 UNK         0.0690 
     96 H96        24.9370   21.5921   -3.5727 H         1 UNK         0.0788 
     97 H97        25.9913   22.9934   -3.4537 H         1 UNK         0.0788 
     98 H98        24.3888   23.1463   -4.1698 H         1 UNK         0.0788 
     99 H99        25.6876   23.2049   -0.3857 H         1 UNK         0.2993 
    100 H100       25.6945   20.1827    1.2681 H         1 UNK         0.0949 
    101 H101       27.1559   19.1413   -0.4721 H         1 UNK         0.0767 
    102 H102       28.0816   20.6310   -0.6120 H         1 UNK         0.0767 
    103 H103       28.1159   19.7027    0.8868 H         1 UNK         0.0767 
    104 H104       26.9434   22.8354    0.7920 H         1 UNK         0.3013 
    105 H105       29.7819   30.6483   -0.5049 H         1 UNK         0.3121 
    106 H106       27.9290   32.3806    0.9441 H         1 UNK         0.0774 
    107 H107       29.7943   34.0294    0.7391 H         1 UNK         0.0815 
    108 H108       30.8439   32.7884    0.0711 H         1 UNK         0.0815 
    109 H109       29.4140   33.3121   -0.8174 H         1 UNK         0.0815 
    110 H110       27.7775   32.4781    3.1194 H         1 UNK         0.2987 
    111 H111       29.2031   30.8492    4.8939 H         1 UNK         0.0949 
    112 H112       27.5720   33.3820    5.4746 H         1 UNK         0.0806 
    113 H113       26.9387   31.7386    5.3660 H         1 UNK         0.0806 
    114 H114       28.0332   32.1747    6.6665 H         1 UNK         0.0806 
    115 H115       29.9501   34.1241    3.8570 H         1 UNK         0.3010 
    116 H116       31.9461   34.7372    5.8305 H         1 UNK         0.0829 
    117 H117       30.8088   36.4879    4.4745 H         1 UNK         0.0813 
    118 H118       32.5444   36.5583    4.2261 H         1 UNK         0.0813 
    119 H119       31.5178   35.8358    2.9957 H         1 UNK         0.0813 
    120 H120       32.0053   32.5738    3.1042 H         1 UNK         0.3038 
    121 H121       34.9945   32.5137    3.0361 H         1 UNK         0.0769 
    122 H122       34.7032   31.6087    0.7579 H         1 UNK         0.0811 
    123 H123       33.8562   33.1412    0.8762 H         1 UNK         0.0811 
    124 H124       32.9536   31.6267    0.9258 H         1 UNK         0.0811 
    125 H125       32.7272   31.0684    4.7914 H         1 UNK         0.3204 
    126 H126       32.8116   28.3313    4.1114 H         1 UNK         0.0748 
    127 H127       31.8498   27.9874    6.3915 H         1 UNK         0.0771 
    128 H128       32.2086   29.6619    6.7971 H         1 UNK         0.0771 
    129 H129       31.0396   29.2844    5.5314 H         1 UNK         0.0771 
    130 H130       34.1505   26.6849    4.5381 H         1 UNK         0.2980 
    131 H131       36.7692   27.1929    5.5935 H         1 UNK         0.0545 
    132 H132       34.7435   25.7577    8.7683 H         1 UNK         0.3459 
    133 H133       33.9146   26.4013    7.3732 H         1 UNK         0.3459 
    134 H134       37.2384   24.8308    5.0268 H         1 UNK         0.0616 
    135 H135       35.5473   24.5242    4.7471 H         1 UNK         0.0616 
    136 H136       35.4745   24.9436    1.0163 H         1 UNK         0.0634 
    137 H137       35.3496   23.8305    2.3524 H         1 UNK         0.0634 
@<TRIPOS>BOND
     1    1    2 1    
     2    1   72 1    
     3    1   73 1    
     4    1   74 1    
     5    2    3 2    
     6    2    4 am   BACKBONE|DICT|INTERRES
     7    4    5 1    
     8    4   75 1    
     9    5    6 1    
    10    5   35 1    
    11    5   76 1    
    12    6    7 1    
    13    6   77 1    
    14    6   78 1    
    15    7    8 1    
    16    8    9 1    
    17    8   79 1    
    18    8   80 1    
    19    9   10 ar   
    20    9   14 ar   
    21   10   11 ar   
    22   10   81 1    
    23   11   12 ar   
    24   11   71 1    
    25   12   13 ar   
    26   12   82 1    
    27   13   14 ar   
    28   13   15 1    
    29   14   83 1    
    30   15   16 1    
    31   15   84 1    
    32   15   85 1    
    33   16   17 1    
    34   17   18 1    
    35   17   86 1    
    36   17   87 1    
    37   18   19 1    
    38   18   37 1    
    39   18   88 1    
    40   19   20 am   BACKBONE|DICT|INTERRES
    41   19   89 1    
    42   20   21 2    
    43   20   22 1    
    44   22   23 1    
    45   22   24 1    
    46   22   90 1    
    47   23   91 1    
    48   23   92 1    
    49   23   93 1    
    50   24   25 am   BACKBONE|DICT|INTERRES
    51   24   94 1    
    52   25   26 2    
    53   25   27 1    
    54   27   28 1    
    55   27   29 1    
    56   27   95 1    
    57   28   96 1    
    58   28   97 1    
    59   28   98 1    
    60   29   30 am   BACKBONE|DICT|INTERRES
    61   29   99 1    
    62   30   31 2    
    63   30   32 1    
    64   32   33 1    
    65   32   34 1    
    66   32  100 1    
    67   33  101 1    
    68   33  102 1    
    69   33  103 1    
    70   34   35 am   BACKBONE|DICT|INTERRES
    71   34  104 1    
    72   35   36 2    
    73   37   38 2    
    74   37   39 am   BACKBONE|DICT|INTERRES
    75   39   40 1    
    76   39  105 1    
    77   40   41 1    
    78   40   42 1    
    79   40  106 1    
    80   41  107 1    
    81   41  108 1    
    82   41  109 1    
    83   42   43 2    
    84   42   44 am   BACKBONE|DICT|INTERRES
    85   44   45 1    
    86   44  110 1    
    87   45   46 1    
    88   45   47 1    
    89   45  111 1    
    90   46  112 1    
    91   46  113 1    
    92   46  114 1    
    93   47   48 2    
    94   47   49 am   BACKBONE|DICT|INTERRES
    95   49   50 1    
    96   49  115 1    
    97   50   51 1    
    98   50   52 1    
    99   50  116 1    
   100   51  117 1    
   101   51  118 1    
   102   51  119 1    
   103   52   53 2    
   104   52   54 am   BACKBONE|DICT|INTERRES
   105   54   55 1    
   106   54  120 1    
   107   55   56 1    
   108   55   57 1    
   109   55  121 1    
   110   56  122 1    
   111   56  123 1    
   112   56  124 1    
   113   57   58 2    
   114   57   59 am   BACKBONE|DICT|INTERRES
   115   59   60 1    
   116   59  125 1    
   117   60   61 1    
   118   60   62 1    
   119   60  126 1    
   120   61  127 1    
   121   61  128 1    
   122   61  129 1    
   123   62   63 2    
   124   62   64 am   BACKBONE|DICT|INTERRES
   125   64   65 1    
   126   64  130 1    
   127   65   66 1    
   128   65   69 1    
   129   65  131 1    
   130   66   67 am   BACKBONE|DICT|INTERRES
   131   66   68 2    
   132   67  132 1    
   133   67  133 1    
   134   69   70 1    
   135   69  134 1    
   136   69  135 1    
   137   70   71 1    
   138   71  136 1    
   139   71  137 1    
@<TRIPOS>SUBSTRUCTURE
     1 UNK         1 GROUP             0       ****    0 ROOT    
