@<TRIPOS>MOLECULE
3R136
137   139    1
SMALL
USER_CHARGES


@<TRIPOS>ATOM
      1 CA         30.9194   21.3015    4.2006 C.3       0 UNK        -0.1979 
      2 C          29.9728   22.1990    3.4183 C.2       0 UNK         0.4864 
      3 O          29.9661   22.1552    2.1870 O.2       0 UNK        -0.5359 
      4 N          29.1644   23.0047    4.1210 N.am      1 UNK        -0.4318 
      5 CA         28.2279   23.9848    3.5567 C.3       1 UNK         0.0824 
      6 C6         27.9518   25.1332    4.5687 C.3       12 UNK        -0.0944 
      7 S7         27.6632   26.7288    3.7326 S.3       12 UNK        -0.2672 
      8 C8         29.3148   27.4942    3.8361 C.3       12 UNK         0.0333 
      9 C9         30.3714   26.6703    3.1130 C.ar      12 UNK        -0.0807 
     10 C10        31.3448   25.9760    3.8369 C.ar      12 UNK        -0.0894 
     11 C11        32.3260   25.2340    3.1735 C.ar      12 UNK        -0.0804 
     12 C12        32.3162   25.1687    1.7767 C.ar      12 UNK        -0.0824 
     13 C13        31.3644   25.8787    1.0406 C.ar      12 UNK        -0.0762 
     14 C14        30.3883   26.6192    1.7167 C.ar      12 UNK        -0.0782 
     15 C15        31.4490   25.9143   -0.4792 C.3       12 UNK         0.0230 
     16 S16        29.8771   25.4562   -1.2723 S.3       12 UNK        -0.2608 
     17 C17        29.9579   26.4232   -2.8238 C.3       12 UNK        -0.0989 
     18 CA         29.2428   27.8017   -2.7618 C.3       5 UNK         0.0716 
     19 N          27.9115   27.6990   -2.1539 N.am      5 UNK        -0.4135 
     20 C          26.9098   28.5755   -2.2908 C.2       4 UNK         0.5031 
     21 O          26.9665   29.5538   -3.0380 O.2       4 UNK        -0.5229 
     22 CA         25.6380   28.3124   -1.4517 C.3       4 UNK         0.0329 
     23 CB         24.4590   29.2123   -1.8681 C.3       4 UNK        -0.2001 
     24 N          25.2008   26.9110   -1.4878 N.am      4 UNK        -0.4303 
     25 C          25.7701   25.9034   -0.8149 C.2       3 UNK         0.5044 
     26 O          26.7451   26.0467   -0.0727 O.2       3 UNK        -0.5152 
     27 CA         25.1926   24.5040   -1.0552 C.3       3 UNK         0.0319 
     28 CB         25.4891   24.0171   -2.4869 C.3       3 UNK        -0.2001 
     29 N          25.7940   23.5864   -0.0942 N.am      3 UNK        -0.4354 
     30 C          25.2556   22.4488    0.3568 C.2       2 UNK         0.4964 
     31 O          24.1602   22.0206   -0.0097 O.2       2 UNK        -0.5047 
     32 CA         26.0730   21.6356    1.3777 C.3       2 UNK         0.0288 
     33 CB         26.7036   20.4061    0.7028 C.3       2 UNK        -0.2113 
     34 N          27.1330   22.4066    2.0330 N.am      2 UNK        -0.4145 
     35 C          26.9493   23.3094    3.0048 C.2       1 UNK         0.5006 
     36 O          25.8405   23.5796    3.4713 O.2       1 UNK        -0.5103 
     37 C          30.1159   28.8799   -2.0796 C.2       5 UNK         0.5055 
     38 O          31.0482   29.3904   -2.7019 O.2       5 UNK        -0.5220 
     39 N          29.7905   29.2082   -0.8260 N.am      6 UNK        -0.4450 
     40 CA         30.3642   30.2501    0.0167 C.3       6 UNK         0.0367 
     41 CB         31.7471   29.8278    0.5519 C.3       6 UNK        -0.1929 
     42 C          29.3443   30.5130    1.1370 C.2       6 UNK         0.5070 
     43 O          28.2542   29.9315    1.1104 O.2       6 UNK        -0.5237 
     44 N          29.6913   31.3776    2.0942 N.am      7 UNK        -0.4739 
     45 CA         28.8369   31.7412    3.2228 C.3       7 UNK         0.0276 
     46 CB         28.0238   32.9981    2.8638 C.3       7 UNK        -0.1927 
     47 C          29.6910   31.9775    4.4728 C.2       7 UNK         0.5013 
     48 O          30.8832   32.2749    4.3559 O.2       7 UNK        -0.5193 
     49 N          29.0420   31.8748    5.6413 N.am      8 UNK        -0.4253 
     50 CA         29.6134   32.0200    6.9841 C.3       8 UNK         0.0242 
     51 CB         30.0702   33.4778    7.2321 C.3       8 UNK        -0.2000 
     52 C          30.6925   30.9532    7.2602 C.2       8 UNK         0.4948 
     53 O          30.4808   29.7846    6.9307 O.2       8 UNK        -0.5275 
     54 N          31.8102   31.3582    7.8758 N.am      9 UNK        -0.4246 
     55 CA         32.9384   30.4882    8.2166 C.3       9 UNK         0.0261 
     56 CB         33.7211   31.1275    9.3769 C.3       9 UNK        -0.1959 
     57 C          33.8775   30.1953    7.0305 C.2       9 UNK         0.5033 
     58 O          34.7385   29.3233    7.1606 O.2       9 UNK        -0.5390 
     59 N          33.7352   30.9302    5.9188 N.am      10 UNK        -0.4215 
     60 CA         34.5423   30.7570    4.7126 C.3       10 UNK         0.0240 
     61 CB         34.5118   32.0568    3.8914 C.3       10 UNK        -0.1982 
     62 C          34.0215   29.5795    3.8770 C.2       10 UNK         0.4970 
     63 O          32.8073   29.4373    3.7254 O.2       10 UNK        -0.4916 
     64 N          34.9532   28.7977    3.3208 N.am      11 UNK        -0.4279 
     65 CA         34.6762   27.6787    2.4045 C.3       11 UNK         0.1003 
     66 C          35.0157   27.9998    0.9201 C.2       11 UNK         0.5709 
     67 N          35.4416   29.2110    0.5791 N.am      11 UNK        -0.7358 
     68 O          34.8727   27.1412    0.0534 O.2       11 UNK        -0.4999 
     69 C69        35.3514   26.3607    2.8816 C.3       12 UNK        -0.0954 
     70 S70        34.7029   25.7712    4.4849 S.3       12 UNK        -0.2268 
     71 C71        33.4389   24.5627    3.9630 C.3       12 UNK         0.0203 
     72 H72        31.9505   21.5108    3.9171 H         1 UNK         0.0888 
     73 H73        30.8272   21.4497    5.2764 H         1 UNK         0.0888 
     74 H74        30.7107   20.2547    3.9818 H         1 UNK         0.0888 
     75 H75        29.1860   22.9594    5.1297 H         1 UNK         0.3017 
     76 H76        28.7272   24.4211    2.6886 H         1 UNK         0.0873 
     77 H77        27.1096   24.9108    5.2263 H         1 UNK         0.0745 
     78 H78        28.8022   25.2640    5.2395 H         1 UNK         0.0745 
     79 H79        29.2732   28.4908    3.3960 H         1 UNK         0.0705 
     80 H80        29.5830   27.6390    4.8841 H         1 UNK         0.0705 
     81 H81        31.3583   26.0348    4.9165 H         1 UNK         0.1334 
     82 H82        33.0868   24.6122    1.2612 H         1 UNK         0.1417 
     83 H83        29.6438   27.1681    1.1574 H         1 UNK         0.1562 
     84 H84        32.2303   25.2465   -0.8452 H         1 UNK         0.0748 
     85 H85        31.7473   26.9200   -0.7747 H         1 UNK         0.0748 
     86 H86        29.4801   25.8179   -3.5956 H         1 UNK         0.0940 
     87 H87        30.9957   26.5269   -3.1478 H         1 UNK         0.0940 
     88 H88        29.1042   28.1384   -3.7916 H         1 UNK         0.0703 
     89 H89        27.7824   26.9353   -1.4957 H         1 UNK         0.3081 
     90 H90        25.8926   28.5644   -0.4195 H         1 UNK         0.0719 
     91 H91        24.7210   30.2677   -1.7804 H         1 UNK         0.0809 
     92 H92        23.5885   29.0460   -1.2332 H         1 UNK         0.0809 
     93 H93        24.1611   29.0343   -2.9021 H         1 UNK         0.0809 
     94 H94        24.4298   26.7015   -2.1059 H         1 UNK         0.2990 
     95 H95        24.1138   24.5482   -0.8917 H         1 UNK         0.0690 
     96 H96        25.0916   23.0161   -2.6562 H         1 UNK         0.0788 
     97 H97        26.5615   23.9876   -2.6857 H         1 UNK         0.0788 
     98 H98        25.0358   24.6709   -3.2327 H         1 UNK         0.0788 
     99 H99        26.6689   23.9146    0.2963 H         1 UNK         0.2993 
    100 H100       25.3774   21.2871    2.1444 H         1 UNK         0.0949 
    101 H101       27.2251   19.7800    1.4273 H         1 UNK         0.0767 
    102 H102       25.9420   19.7855    0.2284 H         1 UNK         0.0767 
    103 H103       27.4190   20.6934   -0.0691 H         1 UNK         0.0767 
    104 H104       28.0928   22.2173    1.7526 H         1 UNK         0.3013 
    105 H105       28.9579   28.8000   -0.4159 H         1 UNK         0.3121 
    106 H106       30.4623   31.1629   -0.5740 H         1 UNK         0.0774 
    107 H107       32.2233   30.6396    1.1023 H         1 UNK         0.0815 
    108 H108       31.6776   28.9790    1.2307 H         1 UNK         0.0815 
    109 H109       32.4246   29.5532   -0.2563 H         1 UNK         0.0815 
    110 H110       30.6276   31.7612    2.1280 H         1 UNK         0.2987 
    111 H111       28.1508   30.9198    3.4437 H         1 UNK         0.0949 
    112 H112       28.6730   33.8449    2.6375 H         1 UNK         0.0806 
    113 H113       27.3872   32.8231    1.9962 H         1 UNK         0.0806 
    114 H114       27.3724   33.2963    3.6862 H         1 UNK         0.0806 
    115 H115       28.0677   31.6077    5.6191 H         1 UNK         0.3010 
    116 H116       28.8025   31.8087    7.6829 H         1 UNK         0.0829 
    117 H117       29.2685   34.1805    7.0042 H         1 UNK         0.0813 
    118 H118       30.3392   33.6396    8.2767 H         1 UNK         0.0813 
    119 H119       30.9286   33.7526    6.6179 H         1 UNK         0.0813 
    120 H120       31.9012   32.3355    8.1145 H         1 UNK         0.3038 
    121 H121       32.5472   29.5283    8.5612 H         1 UNK         0.0769 
    122 H122       34.1453   32.0923    9.0957 H         1 UNK         0.0811 
    123 H123       34.5477   30.4881    9.6904 H         1 UNK         0.0811 
    124 H124       33.0853   31.2799   10.2492 H         1 UNK         0.0811 
    125 H125       32.9458   31.5574    5.8469 H         1 UNK         0.3204 
    126 H126       35.5763   30.5621    5.0062 H         1 UNK         0.0748 
    127 H127       34.8830   32.9019    4.4716 H         1 UNK         0.0771 
    128 H128       35.1388   31.9739    3.0030 H         1 UNK         0.0771 
    129 H129       33.5023   32.2986    3.5557 H         1 UNK         0.0771 
    130 H130       35.9288   28.9890    3.4956 H         1 UNK         0.2980 
    131 H131       33.6011   27.5079    2.3872 H         1 UNK         0.0545 
    132 H132       35.5475   29.9354    1.2695 H         1 UNK         0.3459 
    133 H133       35.6516   29.4012   -0.3878 H         1 UNK         0.3459 
    134 H134       35.2253   25.5622    2.1488 H         1 UNK         0.0616 
    135 H135       36.4283   26.5045    2.9815 H         1 UNK         0.0616 
    136 H136       33.0201   24.0816    4.8480 H         1 UNK         0.0634 
    137 H137       33.9100   23.7721    3.3768 H         1 UNK         0.0634 
@<TRIPOS>BOND
     1    1    2 1    
     2    1   72 1    
     3    1   73 1    
     4    1   74 1    
     5    2    3 2    
     6    2    4 am   BACKBONE|DICT|INTERRES
     7    4    5 1    
     8    4   75 1    
     9    5    6 1    
    10    5   35 1    
    11    5   76 1    
    12    6    7 1    
    13    6   77 1    
    14    6   78 1    
    15    7    8 1    
    16    8    9 1    
    17    8   79 1    
    18    8   80 1    
    19    9   10 ar   
    20    9   14 ar   
    21   10   11 ar   
    22   10   81 1    
    23   11   12 ar   
    24   11   71 1    
    25   12   13 ar   
    26   12   82 1    
    27   13   14 ar   
    28   13   15 1    
    29   14   83 1    
    30   15   16 1    
    31   15   84 1    
    32   15   85 1    
    33   16   17 1    
    34   17   18 1    
    35   17   86 1    
    36   17   87 1    
    37   18   19 1    
    38   18   37 1    
    39   18   88 1    
    40   19   20 am   BACKBONE|DICT|INTERRES
    41   19   89 1    
    42   20   21 2    
    43   20   22 1    
    44   22   23 1    
    45   22   24 1    
    46   22   90 1    
    47   23   91 1    
    48   23   92 1    
    49   23   93 1    
    50   24   25 am   BACKBONE|DICT|INTERRES
    51   24   94 1    
    52   25   26 2    
    53   25   27 1    
    54   27   28 1    
    55   27   29 1    
    56   27   95 1    
    57   28   96 1    
    58   28   97 1    
    59   28   98 1    
    60   29   30 am   BACKBONE|DICT|INTERRES
    61   29   99 1    
    62   30   31 2    
    63   30   32 1    
    64   32   33 1    
    65   32   34 1    
    66   32  100 1    
    67   33  101 1    
    68   33  102 1    
    69   33  103 1    
    70   34   35 am   BACKBONE|DICT|INTERRES
    71   34  104 1    
    72   35   36 2    
    73   37   38 2    
    74   37   39 am   BACKBONE|DICT|INTERRES
    75   39   40 1    
    76   39  105 1    
    77   40   41 1    
    78   40   42 1    
    79   40  106 1    
    80   41  107 1    
    81   41  108 1    
    82   41  109 1    
    83   42   43 2    
    84   42   44 am   BACKBONE|DICT|INTERRES
    85   44   45 1    
    86   44  110 1    
    87   45   46 1    
    88   45   47 1    
    89   45  111 1    
    90   46  112 1    
    91   46  113 1    
    92   46  114 1    
    93   47   48 2    
    94   47   49 am   BACKBONE|DICT|INTERRES
    95   49   50 1    
    96   49  115 1    
    97   50   51 1    
    98   50   52 1    
    99   50  116 1    
   100   51  117 1    
   101   51  118 1    
   102   51  119 1    
   103   52   53 2    
   104   52   54 am   BACKBONE|DICT|INTERRES
   105   54   55 1    
   106   54  120 1    
   107   55   56 1    
   108   55   57 1    
   109   55  121 1    
   110   56  122 1    
   111   56  123 1    
   112   56  124 1    
   113   57   58 2    
   114   57   59 am   BACKBONE|DICT|INTERRES
   115   59   60 1    
   116   59  125 1    
   117   60   61 1    
   118   60   62 1    
   119   60  126 1    
   120   61  127 1    
   121   61  128 1    
   122   61  129 1    
   123   62   63 2    
   124   62   64 am   BACKBONE|DICT|INTERRES
   125   64   65 1    
   126   64  130 1    
   127   65   66 1    
   128   65   69 1    
   129   65  131 1    
   130   66   67 am   BACKBONE|DICT|INTERRES
   131   66   68 2    
   132   67  132 1    
   133   67  133 1    
   134   69   70 1    
   135   69  134 1    
   136   69  135 1    
   137   70   71 1    
   138   71  136 1    
   139   71  137 1    
@<TRIPOS>SUBSTRUCTURE
     1 UNK         1 GROUP             0       ****    0 ROOT    
