@<TRIPOS>MOLECULE
3R136
137   139    1
SMALL
USER_CHARGES


@<TRIPOS>ATOM
      1 CA         27.6892   19.7414    2.8087 C.3       0 UNK        -0.1979 
      2 C          28.0515   19.8483    1.3350 C.2       0 UNK         0.4864 
      3 O          28.0847   18.8319    0.6406 O.2       0 UNK        -0.5359 
      4 N          28.3068   21.0724    0.8562 N.am      1 UNK        -0.4318 
      5 CA         28.6673   21.3846   -0.5332 C.3       1 UNK         0.0824 
      6 C6         30.0906   21.9961   -0.6622 C.3       12 UNK        -0.0944 
      7 S7         31.3962   20.8629   -0.0671 S.3       12 UNK        -0.2672 
      8 C8         32.6331   22.0122    0.6434 C.3       12 UNK         0.0333 
      9 C9         32.1578   22.8760    1.8151 C.ar      12 UNK        -0.0807 
     10 C10        32.8958   24.0155    2.1536 C.ar      12 UNK        -0.0894 
     11 C11        32.4760   24.8570    3.1886 C.ar      12 UNK        -0.0804 
     12 C12        31.2994   24.5651    3.8832 C.ar      12 UNK        -0.0824 
     13 C13        30.5478   23.4372    3.5514 C.ar      12 UNK        -0.0762 
     14 C14        31.0038   22.5778    2.5497 C.ar      12 UNK        -0.0782 
     15 C15        29.2183   23.1600    4.2314 C.3       12 UNK         0.0230 
     16 S16        27.8405   23.6623    3.1480 S.3       12 UNK        -0.2608 
     17 C17        27.4618   25.3508    3.7339 C.3       12 UNK        -0.0989 
     18 CA         28.2532   26.4811    3.0256 C.3       5 UNK         0.0716 
     19 N          28.1798   26.3924    1.5627 N.am      5 UNK        -0.4135 
     20 C          28.8434   27.1843    0.7062 C.2       4 UNK         0.5031 
     21 O          29.5933   28.0948    1.0561 O.2       4 UNK        -0.5229 
     22 CA         28.5778   26.9778   -0.7946 C.3       4 UNK         0.0329 
     23 CB         29.6386   26.0463   -1.3988 C.3       4 UNK        -0.2001 
     24 N          27.2322   26.4775   -1.1061 N.am      4 UNK        -0.4303 
     25 C          26.0910   27.1119   -0.7880 C.2       3 UNK         0.5044 
     26 O          26.0565   28.1597   -0.1423 O.2       3 UNK        -0.5152 
     27 CA         24.7592   26.4910   -1.2480 C.3       3 UNK         0.0319 
     28 CB         24.2008   27.2618   -2.4551 C.3       3 UNK        -0.2001 
     29 N          24.8327   25.0676   -1.5840 N.am      3 UNK        -0.4354 
     30 C          25.0686   24.0804   -0.7102 C.2       2 UNK         0.4964 
     31 O          25.2768   24.2686    0.4897 O.2       2 UNK        -0.5047 
     32 CA         25.0813   22.6392   -1.2582 C.3       2 UNK         0.0288 
     33 CB         24.8544   22.5291   -2.7849 C.3       2 UNK        -0.2113 
     34 N          26.3024   21.9281   -0.8672 N.am      2 UNK        -0.4145 
     35 C          27.5691   22.2831   -1.1377 C.2       1 UNK         0.5006 
     36 O          27.8717   23.2725   -1.8083 O.2       1 UNK        -0.5103 
     37 C          27.8102   27.8555    3.5803 C.2       5 UNK         0.5055 
     38 O          28.2570   28.2374    4.6632 O.2       5 UNK        -0.5220 
     39 N          26.9602   28.5831    2.8366 N.am      6 UNK        -0.4450 
     40 CA         26.4579   29.9120    3.1953 C.3       6 UNK         0.0367 
     41 CB         25.2449   30.2492    2.3124 C.3       6 UNK        -0.1929 
     42 C          27.5135   31.0319    3.1126 C.2       6 UNK         0.5070 
     43 O          27.2406   32.1327    3.5923 O.2       6 UNK        -0.5237 
     44 N          28.6889   30.7583    2.5226 N.am      7 UNK        -0.4739 
     45 CA         29.8099   31.7012    2.4345 C.3       7 UNK         0.0276 
     46 CB         30.8690   31.1463    1.4696 C.3       7 UNK        -0.1927 
     47 C          30.4386   32.0492    3.7976 C.2       7 UNK         0.5013 
     48 O          31.0236   33.1265    3.9226 O.2       7 UNK        -0.5193 
     49 N          30.2964   31.1529    4.7889 N.am      8 UNK        -0.4253 
     50 CA         30.7147   31.3011    6.1887 C.3       8 UNK         0.0242 
     51 CB         29.7441   32.2497    6.9277 C.3       8 UNK        -0.2000 
     52 C          32.1977   31.7011    6.3171 C.2       8 UNK         0.4948 
     53 O          33.0666   30.8838    6.0155 O.2       8 UNK        -0.5275 
     54 N          32.4699   32.9521    6.7135 N.am      9 UNK        -0.4246 
     55 CA         33.8139   33.5286    6.8202 C.3       9 UNK         0.0261 
     56 CB         33.7158   34.9275    7.4499 C.3       9 UNK        -0.1959 
     57 C          34.5821   33.5925    5.4855 C.2       9 UNK         0.5033 
     58 O          35.8129   33.5474    5.5050 O.2       9 UNK        -0.5390 
     59 N          33.8623   33.6731    4.3566 N.am      10 UNK        -0.4215 
     60 CA         34.4370   33.6548    3.0087 C.3       10 UNK         0.0240 
     61 CB         33.5427   34.4806    2.0671 C.3       10 UNK        -0.1982 
     62 C          34.6474   32.2293    2.4617 C.2       10 UNK         0.4970 
     63 O          35.2096   32.0931    1.3745 O.2       10 UNK        -0.4916 
     64 N          34.1982   31.1984    3.1929 N.am      11 UNK        -0.4279 
     65 CA         34.3392   29.7825    2.8183 C.3       11 UNK         0.1003 
     66 C          35.7825   29.2152    2.9690 C.2       11 UNK         0.5709 
     67 N          36.6922   29.8900    3.6634 N.am      11 UNK        -0.7358 
     68 O          36.0889   28.1522    2.4355 O.2       11 UNK        -0.4999 
     69 C69        33.2941   28.9149    3.5688 C.3       12 UNK        -0.0954 
     70 S70        32.6615   27.5227    2.5830 S.3       12 UNK        -0.2268 
     71 C71        33.2680   26.1037    3.5392 C.3       12 UNK         0.0203 
     72 H72        26.9096   18.9939    2.9535 H         1 UNK         0.0888 
     73 H73        28.5615   19.4411    3.3886 H         1 UNK         0.0888 
     74 H74        27.3201   20.6865    3.2048 H         1 UNK         0.0888 
     75 H75        28.2126   21.8748    1.4668 H         1 UNK         0.3017 
     76 H76        28.6544   20.4750   -1.1373 H         1 UNK         0.0873 
     77 H77        30.3141   22.2338   -1.7040 H         1 UNK         0.0745 
     78 H78        30.1456   22.9384   -0.1167 H         1 UNK         0.0745 
     79 H79        33.4920   21.4273    0.9746 H         1 UNK         0.0705 
     80 H80        32.9909   22.6582   -0.1600 H         1 UNK         0.0705 
     81 H81        33.7928   24.2592    1.6004 H         1 UNK         0.1334 
     82 H82        30.9565   25.2319    4.6626 H         1 UNK         0.1417 
     83 H83        30.4285   21.6947    2.3214 H         1 UNK         0.1562 
     84 H84        29.1559   23.6644    5.1966 H         1 UNK         0.0748 
     85 H85        29.1343   22.0930    4.4419 H         1 UNK         0.0748 
     86 H86        27.6184   25.3941    4.8136 H         1 UNK         0.0940 
     87 H87        26.3899   25.5004    3.5873 H         1 UNK         0.0940 
     88 H88        29.3067   26.3737    3.2850 H         1 UNK         0.0703 
     89 H89        27.5740   25.6740    1.1907 H         1 UNK         0.3081 
     90 H90        28.6738   27.9538   -1.2749 H         1 UNK         0.0719 
     91 H91        30.6403   26.4547   -1.2571 H         1 UNK         0.0809 
     92 H92        29.6219   25.0645   -0.9281 H         1 UNK         0.0809 
     93 H93        29.4908   25.9097   -2.4701 H         1 UNK         0.0809 
     94 H94        27.1775   25.5993   -1.6062 H         1 UNK         0.2990 
     95 H95        24.0547   26.5999   -0.4206 H         1 UNK         0.0690 
     96 H96        24.1005   28.3243   -2.2281 H         1 UNK         0.0788 
     97 H97        23.2117   26.8991   -2.7359 H         1 UNK         0.0788 
     98 H98        24.8519   27.1752   -3.3260 H         1 UNK         0.0788 
     99 H99        24.6901   24.8214   -2.5531 H         1 UNK         0.2993 
    100 H100       24.2542   22.1268   -0.7642 H         1 UNK         0.0949 
    101 H101       24.8476   21.4859   -3.1015 H         1 UNK         0.0767 
    102 H102       23.8913   22.9510   -3.0758 H         1 UNK         0.0767 
    103 H103       25.6313   23.0377   -3.3573 H         1 UNK         0.0767 
    104 H104       26.1645   21.1197   -0.2771 H         1 UNK         0.3013 
    105 H105       26.6735   28.2283    1.9304 H         1 UNK         0.3121 
    106 H106       26.1184   29.8700    4.2325 H         1 UNK         0.0774 
    107 H107       24.7826   31.1860    2.6262 H         1 UNK         0.0815 
    108 H108       25.5287   30.3637    1.2658 H         1 UNK         0.0815 
    109 H109       24.4792   29.4755    2.3711 H         1 UNK         0.0815 
    110 H110       28.8408   29.8341    2.1322 H         1 UNK         0.2987 
    111 H111       29.4274   32.6345    2.0155 H         1 UNK         0.0949 
    112 H112       31.2568   30.1851    1.8054 H         1 UNK         0.0806 
    113 H113       30.4574   31.0043    0.4703 H         1 UNK         0.0806 
    114 H114       31.7159   31.8263    1.3764 H         1 UNK         0.0806 
    115 H115       29.8144   30.2912    4.5675 H         1 UNK         0.3010 
    116 H116       30.6261   30.3143    6.6458 H         1 UNK         0.0829 
    117 H117       29.7149   33.2444    6.4812 H         1 UNK         0.0813 
    118 H118       28.7276   31.8561    6.9049 H         1 UNK         0.0813 
    119 H119       30.0181   32.3593    7.9780 H         1 UNK         0.0813 
    120 H120       31.6937   33.5672    6.9110 H         1 UNK         0.3038 
    121 H121       34.3905   32.8907    7.4934 H         1 UNK         0.0769 
    122 H122       33.1255   35.6073    6.8340 H         1 UNK         0.0811 
    123 H123       34.7051   35.3720    7.5688 H         1 UNK         0.0811 
    124 H124       33.2606   34.8876    8.4396 H         1 UNK         0.0811 
    125 H125       32.8458   33.6584    4.4110 H         1 UNK         0.3204 
    126 H126       35.4185   34.1332    3.0327 H         1 UNK         0.0748 
    127 H127       33.9765   34.5416    1.0681 H         1 UNK         0.0771 
    128 H128       32.5487   34.0468    1.9626 H         1 UNK         0.0771 
    129 H129       33.4247   35.5021    2.4291 H         1 UNK         0.0771 
    130 H130       33.7865   31.3701    4.1026 H         1 UNK         0.2980 
    131 H131       34.1092   29.7303    1.7522 H         1 UNK         0.0545 
    132 H132       37.6243   29.5165    3.7478 H         1 UNK         0.3459 
    133 H133       36.4550   30.7631    4.1070 H         1 UNK         0.3459 
    134 H134       32.4143   29.5105    3.8108 H         1 UNK         0.0616 
    135 H135       33.6789   28.5728    4.5312 H         1 UNK         0.0616 
    136 H136       34.3306   25.9575    3.3392 H         1 UNK         0.0634 
    137 H137       33.1749   26.3054    4.6074 H         1 UNK         0.0634 
@<TRIPOS>BOND
     1    1    2 1    
     2    1   72 1    
     3    1   73 1    
     4    1   74 1    
     5    2    3 2    
     6    2    4 am   BACKBONE|DICT|INTERRES
     7    4    5 1    
     8    4   75 1    
     9    5    6 1    
    10    5   35 1    
    11    5   76 1    
    12    6    7 1    
    13    6   77 1    
    14    6   78 1    
    15    7    8 1    
    16    8    9 1    
    17    8   79 1    
    18    8   80 1    
    19    9   10 ar   
    20    9   14 ar   
    21   10   11 ar   
    22   10   81 1    
    23   11   12 ar   
    24   11   71 1    
    25   12   13 ar   
    26   12   82 1    
    27   13   14 ar   
    28   13   15 1    
    29   14   83 1    
    30   15   16 1    
    31   15   84 1    
    32   15   85 1    
    33   16   17 1    
    34   17   18 1    
    35   17   86 1    
    36   17   87 1    
    37   18   19 1    
    38   18   37 1    
    39   18   88 1    
    40   19   20 am   BACKBONE|DICT|INTERRES
    41   19   89 1    
    42   20   21 2    
    43   20   22 1    
    44   22   23 1    
    45   22   24 1    
    46   22   90 1    
    47   23   91 1    
    48   23   92 1    
    49   23   93 1    
    50   24   25 am   BACKBONE|DICT|INTERRES
    51   24   94 1    
    52   25   26 2    
    53   25   27 1    
    54   27   28 1    
    55   27   29 1    
    56   27   95 1    
    57   28   96 1    
    58   28   97 1    
    59   28   98 1    
    60   29   30 am   BACKBONE|DICT|INTERRES
    61   29   99 1    
    62   30   31 2    
    63   30   32 1    
    64   32   33 1    
    65   32   34 1    
    66   32  100 1    
    67   33  101 1    
    68   33  102 1    
    69   33  103 1    
    70   34   35 am   BACKBONE|DICT|INTERRES
    71   34  104 1    
    72   35   36 2    
    73   37   38 2    
    74   37   39 am   BACKBONE|DICT|INTERRES
    75   39   40 1    
    76   39  105 1    
    77   40   41 1    
    78   40   42 1    
    79   40  106 1    
    80   41  107 1    
    81   41  108 1    
    82   41  109 1    
    83   42   43 2    
    84   42   44 am   BACKBONE|DICT|INTERRES
    85   44   45 1    
    86   44  110 1    
    87   45   46 1    
    88   45   47 1    
    89   45  111 1    
    90   46  112 1    
    91   46  113 1    
    92   46  114 1    
    93   47   48 2    
    94   47   49 am   BACKBONE|DICT|INTERRES
    95   49   50 1    
    96   49  115 1    
    97   50   51 1    
    98   50   52 1    
    99   50  116 1    
   100   51  117 1    
   101   51  118 1    
   102   51  119 1    
   103   52   53 2    
   104   52   54 am   BACKBONE|DICT|INTERRES
   105   54   55 1    
   106   54  120 1    
   107   55   56 1    
   108   55   57 1    
   109   55  121 1    
   110   56  122 1    
   111   56  123 1    
   112   56  124 1    
   113   57   58 2    
   114   57   59 am   BACKBONE|DICT|INTERRES
   115   59   60 1    
   116   59  125 1    
   117   60   61 1    
   118   60   62 1    
   119   60  126 1    
   120   61  127 1    
   121   61  128 1    
   122   61  129 1    
   123   62   63 2    
   124   62   64 am   BACKBONE|DICT|INTERRES
   125   64   65 1    
   126   64  130 1    
   127   65   66 1    
   128   65   69 1    
   129   65  131 1    
   130   66   67 am   BACKBONE|DICT|INTERRES
   131   66   68 2    
   132   67  132 1    
   133   67  133 1    
   134   69   70 1    
   135   69  134 1    
   136   69  135 1    
   137   70   71 1    
   138   71  136 1    
   139   71  137 1    
@<TRIPOS>SUBSTRUCTURE
     1 UNK         1 GROUP             0       ****    0 ROOT    
