@<TRIPOS>MOLECULE
3R136
137   139    1
SMALL
USER_CHARGES


@<TRIPOS>ATOM
      1 CA         29.6256   21.5033   -2.5205 C.3       0 UNK        -0.1979 
      2 C          29.5188   21.7591   -1.0238 C.2       0 UNK         0.4864 
      3 O          29.0684   20.8762   -0.2921 O.2       0 UNK        -0.5359 
      4 N          29.9346   22.9570   -0.5853 N.am      1 UNK        -0.4318 
      5 CA         29.8893   23.4826    0.7888 C.3       1 UNK         0.0824 
      6 C6         30.6674   22.6152    1.8234 C.3       12 UNK        -0.0944 
      7 S7         32.4573   22.5777    1.4583 S.3       12 UNK        -0.2672 
      8 C8         33.1776   23.4752    2.8801 C.3       12 UNK         0.0333 
      9 C9         32.5388   24.8383    3.1313 C.ar      12 UNK        -0.0807 
     10 C10        32.1044   25.1813    4.4161 C.ar      12 UNK        -0.0894 
     11 C11        31.4958   26.4178    4.6567 C.ar      12 UNK        -0.0804 
     12 C12        31.2839   27.2966    3.5901 C.ar      12 UNK        -0.0824 
     13 C13        31.7028   26.9590    2.3014 C.ar      12 UNK        -0.0762 
     14 C14        32.3605   25.7466    2.0837 C.ar      12 UNK        -0.0782 
     15 C15        31.3686   27.8619    1.1294 C.3       12 UNK         0.0230 
     16 S16        29.7292   27.4115    0.4999 S.3       12 UNK        -0.2608 
     17 C17        29.5664   28.4733   -0.9722 C.3       12 UNK        -0.0989 
     18 CA         28.0967   28.6672   -1.4349 C.3       5 UNK         0.0716 
     19 N          27.3447   27.4066   -1.4537 N.am      5 UNK        -0.4135 
     20 C          26.7613   26.8612   -2.5279 C.2       4 UNK         0.5031 
     21 O          26.7812   27.3622   -3.6531 O.2       4 UNK        -0.5229 
     22 CA         26.0357   25.5173   -2.3228 C.3       4 UNK         0.0329 
     23 CB         26.9894   24.3486   -2.6157 C.3       4 UNK        -0.2001 
     24 N          25.4678   25.3601   -0.9797 N.am      4 UNK        -0.4303 
     25 C          24.4300   26.0742   -0.5152 C.2       3 UNK         0.5044 
     26 O          23.8134   26.8949   -1.1955 O.2       3 UNK        -0.5152 
     27 CA         23.9993   25.8607    0.9503 C.3       3 UNK         0.0319 
     28 CB         22.7267   25.0006    1.0140 C.3       3 UNK        -0.2001 
     29 N          25.0174   25.2679    1.8241 N.am      3 UNK        -0.4354 
     30 C          26.2242   25.7888    2.0831 C.2       2 UNK         0.4964 
     31 O          26.6354   26.8276    1.5678 O.2       2 UNK        -0.5047 
     32 CA         27.1472   25.0131    3.0430 C.3       2 UNK         0.0288 
     33 CB         26.4628   23.8290    3.7643 C.3       2 UNK        -0.2113 
     34 N          28.3714   24.5582    2.3742 N.am      2 UNK        -0.4145 
     35 C          28.4549   23.8137    1.2595 C.2       1 UNK         0.5006 
     36 O          27.4698   23.4344    0.6180 O.2       1 UNK        -0.5103 
     37 C          27.3646   29.7474   -0.6137 C.2       5 UNK         0.5055 
     38 O          27.4981   30.9283   -0.9400 O.2       5 UNK        -0.5220 
     39 N          26.5976   29.3426    0.4112 N.am      6 UNK        -0.4450 
     40 CA         25.7562   30.1337    1.3199 C.3       6 UNK         0.0367 
     41 CB         24.6670   30.9136    0.5585 C.3       6 UNK        -0.1929 
     42 C          26.5383   31.0450    2.2820 C.2       6 UNK         0.5070 
     43 O          26.2516   31.0421    3.4799 O.2       6 UNK        -0.5237 
     44 N          27.5069   31.8018    1.7574 N.am      7 UNK        -0.4739 
     45 CA         28.4495   32.6126    2.5260 C.3       7 UNK         0.0276 
     46 CB         29.1249   33.6173    1.5788 C.3       7 UNK        -0.1927 
     47 C          29.5082   31.7289    3.2028 C.2       7 UNK         0.5013 
     48 O          29.8844   30.6902    2.6538 O.2       7 UNK        -0.5193 
     49 N          30.0259   32.1831    4.3509 N.am      8 UNK        -0.4253 
     50 CA         31.0943   31.5228    5.1083 C.3       8 UNK         0.0242 
     51 CB         31.0333   31.9884    6.5751 C.3       8 UNK        -0.2000 
     52 C          32.4787   31.7528    4.4675 C.2       8 UNK         0.4948 
     53 O          33.3664   32.3329    5.0944 O.2       8 UNK        -0.5275 
     54 N          32.6246   31.3208    3.2087 N.am      9 UNK        -0.4246 
     55 CA         33.8151   31.5189    2.3768 C.3       9 UNK         0.0261 
     56 CB         33.4270   31.3364    0.8996 C.3       9 UNK        -0.1959 
     57 C          35.0000   30.6047    2.7406 C.2       9 UNK         0.5033 
     58 O          36.1165   30.8765    2.2955 O.2       9 UNK        -0.5390 
     59 N          34.7490   29.5446    3.5171 N.am      10 UNK        -0.4215 
     60 CA         35.7457   28.5792    3.9682 C.3       10 UNK         0.0240 
     61 CB         35.7941   27.3812    2.9959 C.3       10 UNK        -0.1982 
     62 C          35.4270   28.2023    5.4192 C.2       10 UNK         0.4970 
     63 O          35.8290   28.9296    6.3275 O.2       10 UNK        -0.4916 
     64 N          34.7080   27.0886    5.6043 N.am      11 UNK        -0.4279 
     65 CA         34.2653   26.5351    6.8971 C.3       11 UNK         0.1003 
     66 C          35.4080   25.9709    7.7960 C.2       11 UNK         0.5709 
     67 N          36.6056   25.7339    7.2733 N.am      11 UNK        -0.7358 
     68 O          35.2011   25.7086    8.9787 O.2       11 UNK        -0.4999 
     69 C69        33.2960   27.4689    7.6824 C.3       12 UNK        -0.0954 
     70 S70        31.9496   28.2285    6.7084 S.3       12 UNK        -0.2268 
     71 C71        31.0296   26.7977    6.0560 C.3       12 UNK         0.0203 
     72 H72        28.6381   21.3059   -2.9371 H         1 UNK         0.0888 
     73 H73        30.0527   22.3535   -3.0522 H         1 UNK         0.0888 
     74 H74        30.2559   20.6346   -2.7090 H         1 UNK         0.0888 
     75 H75        30.2893   23.6134   -1.2656 H         1 UNK         0.3017 
     76 H76        30.3872   24.4491    0.7242 H         1 UNK         0.0873 
     77 H77        30.2940   21.5912    1.8422 H         1 UNK         0.0745 
     78 H78        30.5283   22.9863    2.8396 H         1 UNK         0.0745 
     79 H79        34.2451   23.6136    2.7047 H         1 UNK         0.0705 
     80 H80        33.0904   22.8409    3.7637 H         1 UNK         0.0705 
     81 H81        32.2342   24.4807    5.2295 H         1 UNK         0.1334 
     82 H82        30.7683   28.2329    3.7578 H         1 UNK         0.1417 
     83 H83        32.6827   25.4833    1.0852 H         1 UNK         0.1562 
     84 H84        32.1133   27.7606    0.3384 H         1 UNK         0.0748 
     85 H85        31.3690   28.9065    1.4382 H         1 UNK         0.0748 
     86 H86        30.1364   28.0056   -1.7763 H         1 UNK         0.0940 
     87 H87        30.0503   29.4351   -0.7879 H         1 UNK         0.0940 
     88 H88        28.1432   29.0682   -2.4495 H         1 UNK         0.0703 
     89 H89        27.2773   26.9235   -0.5667 H         1 UNK         0.3081 
     90 H90        25.2141   25.4725   -3.0410 H         1 UNK         0.0719 
     91 H91        27.3616   24.3958   -3.6399 H         1 UNK         0.0809 
     92 H92        27.8551   24.3652   -1.9543 H         1 UNK         0.0809 
     93 H93        26.4925   23.3859   -2.4942 H         1 UNK         0.0809 
     94 H94        25.9265   24.7010   -0.3600 H         1 UNK         0.2990 
     95 H95        23.7637   26.8471    1.3554 H         1 UNK         0.0690 
     96 H96        22.3436   24.9310    2.0324 H         1 UNK         0.0788 
     97 H97        22.9066   23.9878    0.6511 H         1 UNK         0.0788 
     98 H98        21.9325   25.4300    0.4013 H         1 UNK         0.0788 
     99 H99        24.7799   24.3897    2.2623 H         1 UNK         0.2993 
    100 H100       27.4575   25.7318    3.8033 H         1 UNK         0.0949 
    101 H101       25.5822   24.1568    4.3186 H         1 UNK         0.0767 
    102 H102       26.1529   23.0451    3.0719 H         1 UNK         0.0767 
    103 H103       27.1393   23.3739    4.4880 H         1 UNK         0.0767 
    104 H104       29.2324   24.8916    2.7859 H         1 UNK         0.3013 
    105 H105       26.6500   28.3602    0.6779 H         1 UNK         0.3121 
    106 H106       25.2464   29.3969    1.9430 H         1 UNK         0.0774 
    107 H107       24.0689   30.2490   -0.0652 H         1 UNK         0.0815 
    108 H108       23.9866   31.4067    1.2538 H         1 UNK         0.0815 
    109 H109       25.0888   31.6876   -0.0831 H         1 UNK         0.0815 
    110 H110       27.6841   31.6984    0.7615 H         1 UNK         0.2987 
    111 H111       27.8972   33.1599    3.2932 H         1 UNK         0.0949 
    112 H112       28.3913   34.2675    1.1018 H         1 UNK         0.0806 
    113 H113       29.8232   34.2587    2.1182 H         1 UNK         0.0806 
    114 H114       29.6871   33.1127    0.7915 H         1 UNK         0.0806 
    115 H115       29.7004   33.0673    4.7151 H         1 UNK         0.3010 
    116 H116       30.9088   30.4474    5.0958 H         1 UNK         0.0829 
    117 H117       31.7953   31.4873    7.1741 H         1 UNK         0.0813 
    118 H118       31.1988   33.0625    6.6675 H         1 UNK         0.0813 
    119 H119       30.0681   31.7555    7.0252 H         1 UNK         0.0813 
    120 H120       31.8101   30.9007    2.7682 H         1 UNK         0.3038 
    121 H121       34.1511   32.5493    2.5120 H         1 UNK         0.0769 
    122 H122       34.2658   31.5781    0.2454 H         1 UNK         0.0811 
    123 H123       32.6010   31.9905    0.6193 H         1 UNK         0.0811 
    124 H124       33.1343   30.3098    0.6810 H         1 UNK         0.0811 
    125 H125       33.8133   29.4242    3.8783 H         1 UNK         0.3204 
    126 H126       36.7341   29.0441    3.9830 H         1 UNK         0.0748 
    127 H127       36.4718   26.6057    3.3553 H         1 UNK         0.0771 
    128 H128       34.8139   26.9292    2.8486 H         1 UNK         0.0771 
    129 H129       36.1571   27.6930    2.0164 H         1 UNK         0.0771 
    130 H130       34.4201   26.5651    4.7908 H         1 UNK         0.2980 
    131 H131       33.6954   25.6451    6.6394 H         1 UNK         0.0545 
    132 H132       36.7899   25.9303    6.3033 H         1 UNK         0.3459 
    133 H133       37.3334   25.3581    7.8605 H         1 UNK         0.3459 
    134 H134       32.8348   26.9230    8.5072 H         1 UNK         0.0616 
    135 H135       33.8569   28.2839    8.1425 H         1 UNK         0.0616 
    136 H136       31.1116   25.9575    6.7470 H         1 UNK         0.0634 
    137 H137       29.9708   27.0567    6.0135 H         1 UNK         0.0634 
@<TRIPOS>BOND
     1    1    2 1    
     2    1   72 1    
     3    1   73 1    
     4    1   74 1    
     5    2    3 2    
     6    2    4 am   BACKBONE|DICT|INTERRES
     7    4    5 1    
     8    4   75 1    
     9    5    6 1    
    10    5   35 1    
    11    5   76 1    
    12    6    7 1    
    13    6   77 1    
    14    6   78 1    
    15    7    8 1    
    16    8    9 1    
    17    8   79 1    
    18    8   80 1    
    19    9   10 ar   
    20    9   14 ar   
    21   10   11 ar   
    22   10   81 1    
    23   11   12 ar   
    24   11   71 1    
    25   12   13 ar   
    26   12   82 1    
    27   13   14 ar   
    28   13   15 1    
    29   14   83 1    
    30   15   16 1    
    31   15   84 1    
    32   15   85 1    
    33   16   17 1    
    34   17   18 1    
    35   17   86 1    
    36   17   87 1    
    37   18   19 1    
    38   18   37 1    
    39   18   88 1    
    40   19   20 am   BACKBONE|DICT|INTERRES
    41   19   89 1    
    42   20   21 2    
    43   20   22 1    
    44   22   23 1    
    45   22   24 1    
    46   22   90 1    
    47   23   91 1    
    48   23   92 1    
    49   23   93 1    
    50   24   25 am   BACKBONE|DICT|INTERRES
    51   24   94 1    
    52   25   26 2    
    53   25   27 1    
    54   27   28 1    
    55   27   29 1    
    56   27   95 1    
    57   28   96 1    
    58   28   97 1    
    59   28   98 1    
    60   29   30 am   BACKBONE|DICT|INTERRES
    61   29   99 1    
    62   30   31 2    
    63   30   32 1    
    64   32   33 1    
    65   32   34 1    
    66   32  100 1    
    67   33  101 1    
    68   33  102 1    
    69   33  103 1    
    70   34   35 am   BACKBONE|DICT|INTERRES
    71   34  104 1    
    72   35   36 2    
    73   37   38 2    
    74   37   39 am   BACKBONE|DICT|INTERRES
    75   39   40 1    
    76   39  105 1    
    77   40   41 1    
    78   40   42 1    
    79   40  106 1    
    80   41  107 1    
    81   41  108 1    
    82   41  109 1    
    83   42   43 2    
    84   42   44 am   BACKBONE|DICT|INTERRES
    85   44   45 1    
    86   44  110 1    
    87   45   46 1    
    88   45   47 1    
    89   45  111 1    
    90   46  112 1    
    91   46  113 1    
    92   46  114 1    
    93   47   48 2    
    94   47   49 am   BACKBONE|DICT|INTERRES
    95   49   50 1    
    96   49  115 1    
    97   50   51 1    
    98   50   52 1    
    99   50  116 1    
   100   51  117 1    
   101   51  118 1    
   102   51  119 1    
   103   52   53 2    
   104   52   54 am   BACKBONE|DICT|INTERRES
   105   54   55 1    
   106   54  120 1    
   107   55   56 1    
   108   55   57 1    
   109   55  121 1    
   110   56  122 1    
   111   56  123 1    
   112   56  124 1    
   113   57   58 2    
   114   57   59 am   BACKBONE|DICT|INTERRES
   115   59   60 1    
   116   59  125 1    
   117   60   61 1    
   118   60   62 1    
   119   60  126 1    
   120   61  127 1    
   121   61  128 1    
   122   61  129 1    
   123   62   63 2    
   124   62   64 am   BACKBONE|DICT|INTERRES
   125   64   65 1    
   126   64  130 1    
   127   65   66 1    
   128   65   69 1    
   129   65  131 1    
   130   66   67 am   BACKBONE|DICT|INTERRES
   131   66   68 2    
   132   67  132 1    
   133   67  133 1    
   134   69   70 1    
   135   69  134 1    
   136   69  135 1    
   137   70   71 1    
   138   71  136 1    
   139   71  137 1    
@<TRIPOS>SUBSTRUCTURE
     1 UNK         1 GROUP             0       ****    0 ROOT    
