@<TRIPOS>MOLECULE
3R136
137   139    1
SMALL
USER_CHARGES


@<TRIPOS>ATOM
      1 CA         25.2434   19.3228   -0.0988 C.3       0 UNK        -0.1979 
      2 C          26.3489   20.3678   -0.1557 C.2       0 UNK         0.4864 
      3 O          26.2598   21.3777    0.5430 O.2       0 UNK        -0.5359 
      4 N          27.3829   20.1132   -0.9721 N.am      1 UNK        -0.4318 
      5 CA         28.5391   20.9751   -1.2602 C.3       1 UNK         0.0824 
      6 C6         29.2635   21.4931    0.0151 C.3       12 UNK        -0.0944 
      7 S7         31.0403   21.8199   -0.2537 S.3       12 UNK        -0.2672 
      8 C8         31.7393   21.4172    1.3792 C.3       12 UNK         0.0333 
      9 C9         31.4599   22.5135    2.3978 C.ar      12 UNK        -0.0807 
     10 C10        32.4027   23.5207    2.6247 C.ar      12 UNK        -0.0894 
     11 C11        32.1551   24.5339    3.5573 C.ar      12 UNK        -0.0804 
     12 C12        30.9568   24.5194    4.2806 C.ar      12 UNK        -0.0824 
     13 C13        29.9977   23.5317    4.0456 C.ar      12 UNK        -0.0762 
     14 C14        30.2591   22.5251    3.1124 C.ar      12 UNK        -0.0782 
     15 C15        28.6686   23.5590    4.7806 C.3       12 UNK         0.0230 
     16 S16        27.4835   24.6525    3.9323 S.3       12 UNK        -0.2608 
     17 C17        27.5580   26.1826    4.9275 C.3       12 UNK        -0.0989 
     18 CA         28.3065   27.3625    4.2478 C.3       5 UNK         0.0716 
     19 N          27.7861   27.6220    2.8964 N.am      5 UNK        -0.4135 
     20 C          27.9121   28.7038    2.1122 C.2       4 UNK         0.5031 
     21 O          28.4370   29.7715    2.4389 O.2       4 UNK        -0.5229 
     22 CA         27.4308   28.5264    0.6655 C.3       4 UNK         0.0329 
     23 CB         27.0563   29.8632    0.0047 C.3       4 UNK        -0.2001 
     24 N          28.5146   27.9145   -0.0983 N.am      4 UNK        -0.4303 
     25 C          28.7230   26.5983   -0.2017 C.2       3 UNK         0.5044 
     26 O          27.9521   25.7425    0.2372 O.2       3 UNK        -0.5152 
     27 CA         30.0489   26.1742   -0.8499 C.3       3 UNK         0.0319 
     28 CB         31.0602   25.7792    0.2376 C.3       3 UNK        -0.2001 
     29 N          29.8642   25.0471   -1.7610 N.am      3 UNK        -0.4354 
     30 C          29.2723   25.1231   -2.9623 C.2       2 UNK         0.4964 
     31 O          28.8518   26.1727   -3.4506 O.2       2 UNK        -0.5047 
     32 CA         29.1453   23.8190   -3.7715 C.3       2 UNK         0.0288 
     33 CB         30.2478   23.7418   -4.8410 C.3       2 UNK        -0.2113 
     34 N          29.2191   22.6273   -2.9236 N.am      2 UNK        -0.4145 
     35 C          28.1889   22.1254   -2.2305 C.2       1 UNK         0.5006 
     36 O          27.0319   22.5401   -2.3388 O.2       1 UNK        -0.5103 
     37 C          28.3081   28.5931    5.1821 C.2       5 UNK         0.5055 
     38 O          27.3108   28.8432    5.8620 O.2       5 UNK        -0.5220 
     39 N          29.4228   29.3406    5.1793 N.am      6 UNK        -0.4450 
     40 CA         29.6870   30.5605    5.9585 C.3       6 UNK         0.0367 
     41 CB         29.7159   30.2508    7.4706 C.3       6 UNK        -0.1929 
     42 C          28.7633   31.7533    5.6243 C.2       6 UNK         0.5070 
     43 O          28.7572   32.7366    6.3666 O.2       6 UNK        -0.5237 
     44 N          28.0125   31.6623    4.5201 N.am      7 UNK        -0.4739 
     45 CA         27.0911   32.6871    4.0318 C.3       7 UNK         0.0276 
     46 CB         25.7698   32.0217    3.6134 C.3       7 UNK        -0.1927 
     47 C          27.7054   33.4556    2.8559 C.2       7 UNK         0.5013 
     48 O          27.5600   34.6771    2.7947 O.2       7 UNK        -0.5193 
     49 N          28.3968   32.7385    1.9605 N.am      8 UNK        -0.4253 
     50 CA         29.1192   33.3019    0.8182 C.3       8 UNK         0.0242 
     51 CB         28.1588   33.5922   -0.3548 C.3       8 UNK        -0.2000 
     52 C          30.3077   32.4042    0.4397 C.2       8 UNK         0.4948 
     53 O          30.5984   32.2260   -0.7441 O.2       8 UNK        -0.5275 
     54 N          30.9754   31.8543    1.4584 N.am      9 UNK        -0.4246 
     55 CA         32.1843   31.0470    1.3629 C.3       9 UNK         0.0261 
     56 CB         31.8180   29.5776    1.0908 C.3       9 UNK        -0.1959 
     57 C          32.9339   31.2059    2.6886 C.2       9 UNK         0.5033 
     58 O          32.2902   31.3735    3.7289 O.2       9 UNK        -0.5390 
     59 N          34.2702   31.1454    2.6453 N.am      10 UNK        -0.4215 
     60 CA         35.1664   31.3482    3.7916 C.3       10 UNK         0.0240 
     61 CB         36.5462   31.7947    3.2707 C.3       10 UNK        -0.1982 
     62 C          35.2503   30.1126    4.7125 C.2       10 UNK         0.4970 
     63 O          36.3461   29.6245    4.9957 O.2       10 UNK        -0.4916 
     64 N          34.0865   29.6205    5.1460 N.am      11 UNK        -0.4279 
     65 CA         33.9273   28.4141    5.9736 C.3       11 UNK         0.1003 
     66 C          34.0598   28.6677    7.5026 C.2       11 UNK         0.5709 
     67 N          34.1738   29.9070    7.9661 N.am      11 UNK        -0.7358 
     68 O          34.0709   27.7194    8.2836 O.2       11 UNK        -0.4999 
     69 C69        32.6131   27.6614    5.6375 C.3       12 UNK        -0.0954 
     70 S70        32.4587   27.2989    3.8552 S.3       12 UNK        -0.2268 
     71 C71        33.1921   25.6316    3.7677 C.3       12 UNK         0.0203 
     72 H72        24.2964   19.7628   -0.4099 H         1 UNK         0.0888 
     73 H73        25.4504   18.4716   -0.7470 H         1 UNK         0.0888 
     74 H74        25.1291   18.9527    0.9196 H         1 UNK         0.0888 
     75 H75        27.3563   19.2624   -1.5171 H         1 UNK         0.3017 
     76 H76        29.2273   20.3167   -1.7935 H         1 UNK         0.0873 
     77 H77        28.7879   22.3935    0.4111 H         1 UNK         0.0745 
     78 H78        29.1805   20.7410    0.8006 H         1 UNK         0.0745 
     79 H79        32.8161   21.2786    1.2707 H         1 UNK         0.0705 
     80 H80        31.3482   20.4610    1.7299 H         1 UNK         0.0705 
     81 H81        33.3274   23.5203    2.0637 H         1 UNK         0.1334 
     82 H82        30.7566   25.2917    5.0093 H         1 UNK         0.1417 
     83 H83        29.5188   21.7579    2.9332 H         1 UNK         0.1562 
     84 H84        28.8128   23.8590    5.8191 H         1 UNK         0.0748 
     85 H85        28.2442   22.5546    4.8184 H         1 UNK         0.0748 
     86 H86        27.9996   25.9649    5.9015 H         1 UNK         0.0940 
     87 H87        26.5237   26.4653    5.1348 H         1 UNK         0.0940 
     88 H88        29.3443   27.0556    4.1116 H         1 UNK         0.0703 
     89 H89        27.3727   26.8045    2.4668 H         1 UNK         0.3081 
     90 H90        26.5466   27.8849    0.6610 H         1 UNK         0.0719 
     91 H91        27.9225   30.5174   -0.0827 H         1 UNK         0.0809 
     92 H92        26.6545   29.7092   -0.9968 H         1 UNK         0.0809 
     93 H93        26.2969   30.3916    0.5815 H         1 UNK         0.0809 
     94 H94        29.2110   28.5473   -0.4641 H         1 UNK         0.2990 
     95 H95        30.4592   27.0120   -1.4181 H         1 UNK         0.0690 
     96 H96        32.0187   25.4858   -0.1904 H         1 UNK         0.0788 
     97 H97        30.6903   24.9462    0.8369 H         1 UNK         0.0788 
     98 H98        31.2487   26.6073    0.9219 H         1 UNK         0.0788 
     99 H99        30.1462   24.1415   -1.4154 H         1 UNK         0.2993 
    100 H100       28.1779   23.8396   -4.2789 H         1 UNK         0.0949 
    101 H101       31.2435   23.7231   -4.3959 H         1 UNK         0.0767 
    102 H102       30.1386   22.8503   -5.4592 H         1 UNK         0.0767 
    103 H103       30.2050   24.6040   -5.5081 H         1 UNK         0.0767 
    104 H104       30.1367   22.2264   -2.7835 H         1 UNK         0.3013 
    105 H105       30.1478   29.0931    4.5193 H         1 UNK         0.3121 
    106 H106       30.6905   30.8811    5.6808 H         1 UNK         0.0774 
    107 H107       30.0606   31.1144    8.0405 H         1 UNK         0.0815 
    108 H108       28.7279   29.9878    7.8492 H         1 UNK         0.0815 
    109 H109       30.3933   29.4278    7.6970 H         1 UNK         0.0815 
    110 H110       28.1171   30.8329    3.9410 H         1 UNK         0.2987 
    111 H111       26.8718   33.4068    4.8238 H         1 UNK         0.0949 
    112 H112       25.0620   32.7609    3.2359 H         1 UNK         0.0806 
    113 H113       25.9182   31.2791    2.8294 H         1 UNK         0.0806 
    114 H114       25.2971   31.5214    4.4589 H         1 UNK         0.0806 
    115 H115       28.4662   31.7312    2.0831 H         1 UNK         0.3010 
    116 H116       29.5621   34.2517    1.1259 H         1 UNK         0.0829 
    117 H117       27.3738   34.2893   -0.0619 H         1 UNK         0.0813 
    118 H118       28.6904   34.0455   -1.1924 H         1 UNK         0.0813 
    119 H119       27.6783   32.6885   -0.7259 H         1 UNK         0.0813 
    120 H120       30.7105   32.0722    2.4117 H         1 UNK         0.3038 
    121 H121       32.8128   31.4273    0.5547 H         1 UNK         0.0769 
    122 H122       31.1404   29.1871    1.8508 H         1 UNK         0.0811 
    123 H123       32.7057   28.9439    1.0843 H         1 UNK         0.0811 
    124 H124       31.3325   29.4654    0.1219 H         1 UNK         0.0811 
    125 H125       34.7168   30.9567    1.7590 H         1 UNK         0.3204 
    126 H126       34.7679   32.1638    4.3992 H         1 UNK         0.0748 
    127 H127       37.2257   32.0122    4.0961 H         1 UNK         0.0771 
    128 H128       37.0147   31.0251    2.6558 H         1 UNK         0.0771 
    129 H129       36.4698   32.7028    2.6722 H         1 UNK         0.0771 
    130 H130       33.2371   30.0908    4.8498 H         1 UNK         0.2980 
    131 H131       34.7455   27.7349    5.7268 H         1 UNK         0.0545 
    132 H132       34.2649   30.0564    8.9584 H         1 UNK         0.3459 
    133 H133       34.1720   30.6909    7.3342 H         1 UNK         0.3459 
    134 H134       31.7548   28.2582    5.9412 H         1 UNK         0.0616 
    135 H135       32.5417   26.7288    6.2000 H         1 UNK         0.0616 
    136 H136       33.9070   25.6345    2.9436 H         1 UNK         0.0634 
    137 H137       33.7684   25.4160    4.6680 H         1 UNK         0.0634 
@<TRIPOS>BOND
     1    1    2 1    
     2    1   72 1    
     3    1   73 1    
     4    1   74 1    
     5    2    3 2    
     6    2    4 am   BACKBONE|DICT|INTERRES
     7    4    5 1    
     8    4   75 1    
     9    5    6 1    
    10    5   35 1    
    11    5   76 1    
    12    6    7 1    
    13    6   77 1    
    14    6   78 1    
    15    7    8 1    
    16    8    9 1    
    17    8   79 1    
    18    8   80 1    
    19    9   10 ar   
    20    9   14 ar   
    21   10   11 ar   
    22   10   81 1    
    23   11   12 ar   
    24   11   71 1    
    25   12   13 ar   
    26   12   82 1    
    27   13   14 ar   
    28   13   15 1    
    29   14   83 1    
    30   15   16 1    
    31   15   84 1    
    32   15   85 1    
    33   16   17 1    
    34   17   18 1    
    35   17   86 1    
    36   17   87 1    
    37   18   19 1    
    38   18   37 1    
    39   18   88 1    
    40   19   20 am   BACKBONE|DICT|INTERRES
    41   19   89 1    
    42   20   21 2    
    43   20   22 1    
    44   22   23 1    
    45   22   24 1    
    46   22   90 1    
    47   23   91 1    
    48   23   92 1    
    49   23   93 1    
    50   24   25 am   BACKBONE|DICT|INTERRES
    51   24   94 1    
    52   25   26 2    
    53   25   27 1    
    54   27   28 1    
    55   27   29 1    
    56   27   95 1    
    57   28   96 1    
    58   28   97 1    
    59   28   98 1    
    60   29   30 am   BACKBONE|DICT|INTERRES
    61   29   99 1    
    62   30   31 2    
    63   30   32 1    
    64   32   33 1    
    65   32   34 1    
    66   32  100 1    
    67   33  101 1    
    68   33  102 1    
    69   33  103 1    
    70   34   35 am   BACKBONE|DICT|INTERRES
    71   34  104 1    
    72   35   36 2    
    73   37   38 2    
    74   37   39 am   BACKBONE|DICT|INTERRES
    75   39   40 1    
    76   39  105 1    
    77   40   41 1    
    78   40   42 1    
    79   40  106 1    
    80   41  107 1    
    81   41  108 1    
    82   41  109 1    
    83   42   43 2    
    84   42   44 am   BACKBONE|DICT|INTERRES
    85   44   45 1    
    86   44  110 1    
    87   45   46 1    
    88   45   47 1    
    89   45  111 1    
    90   46  112 1    
    91   46  113 1    
    92   46  114 1    
    93   47   48 2    
    94   47   49 am   BACKBONE|DICT|INTERRES
    95   49   50 1    
    96   49  115 1    
    97   50   51 1    
    98   50   52 1    
    99   50  116 1    
   100   51  117 1    
   101   51  118 1    
   102   51  119 1    
   103   52   53 2    
   104   52   54 am   BACKBONE|DICT|INTERRES
   105   54   55 1    
   106   54  120 1    
   107   55   56 1    
   108   55   57 1    
   109   55  121 1    
   110   56  122 1    
   111   56  123 1    
   112   56  124 1    
   113   57   58 2    
   114   57   59 am   BACKBONE|DICT|INTERRES
   115   59   60 1    
   116   59  125 1    
   117   60   61 1    
   118   60   62 1    
   119   60  126 1    
   120   61  127 1    
   121   61  128 1    
   122   61  129 1    
   123   62   63 2    
   124   62   64 am   BACKBONE|DICT|INTERRES
   125   64   65 1    
   126   64  130 1    
   127   65   66 1    
   128   65   69 1    
   129   65  131 1    
   130   66   67 am   BACKBONE|DICT|INTERRES
   131   66   68 2    
   132   67  132 1    
   133   67  133 1    
   134   69   70 1    
   135   69  134 1    
   136   69  135 1    
   137   70   71 1    
   138   71  136 1    
   139   71  137 1    
@<TRIPOS>SUBSTRUCTURE
     1 UNK         1 GROUP             0       ****    0 ROOT    
