@<TRIPOS>MOLECULE
3R136
137   139    1
SMALL
USER_CHARGES


@<TRIPOS>ATOM
      1 CA         24.7106   19.1817    0.4791 C.3       0 UNK        -0.1979 
      2 C          26.0402   19.5501   -0.1630 C.2       0 UNK         0.4864 
      3 O          26.3802   19.0100   -1.2173 O.2       0 UNK        -0.5359 
      4 N          26.7967   20.4580    0.4676 N.am      1 UNK        -0.4318 
      5 CA         28.0678   20.9826   -0.0413 C.3       1 UNK         0.0824 
      6 C6         28.9040   21.6278    1.0951 C.3       12 UNK        -0.0944 
      7 S7         30.6991   21.5677    0.7569 S.3       12 UNK        -0.2672 
      8 C8         31.3933   21.2619    2.4160 C.3       12 UNK         0.0333 
      9 C9         31.5476   22.5544    3.2060 C.ar      12 UNK        -0.0807 
     10 C10        32.8139   23.1175    3.4036 C.ar      12 UNK        -0.0894 
     11 C11        32.9536   24.3154    4.1122 C.ar      12 UNK        -0.0804 
     12 C12        31.8143   24.9661    4.5947 C.ar      12 UNK        -0.0824 
     13 C13        30.5476   24.4052    4.4192 C.ar      12 UNK        -0.0762 
     14 C14        30.4234   23.1893    3.7424 C.ar      12 UNK        -0.0782 
     15 C15        29.3172   25.1141    4.9617 C.3       12 UNK         0.0230 
     16 S16        28.1866   25.5829    3.6165 S.3       12 UNK        -0.2608 
     17 C17        27.3761   27.0540    4.3209 C.3       12 UNK        -0.0989 
     18 CA         27.8956   28.3576    3.6657 C.3       5 UNK         0.0716 
     19 N          27.6360   28.3673    2.2210 N.am      5 UNK        -0.4135 
     20 C          27.8148   29.3730    1.3551 C.2       4 UNK         0.5031 
     21 O          28.1624   30.5142    1.6704 O.2       4 UNK        -0.5229 
     22 CA         27.6569   29.0092   -0.1332 C.3       4 UNK         0.0329 
     23 CB         27.7306   30.2449   -1.0491 C.3       4 UNK        -0.2001 
     24 N          28.7006   28.0627   -0.5379 N.am      4 UNK        -0.4303 
     25 C          28.6691   26.7408   -0.3291 C.2       3 UNK         0.5044 
     26 O          27.7064   26.1515    0.1664 O.2       3 UNK        -0.5152 
     27 CA         29.9532   25.9638   -0.6692 C.3       3 UNK         0.0319 
     28 CB         30.7508   25.6617    0.6119 C.3       3 UNK        -0.2001 
     29 N          29.6711   24.7030   -1.3536 N.am      3 UNK        -0.4354 
     30 C          29.1397   24.5867   -2.5797 C.2       2 UNK         0.4964 
     31 O          28.8719   25.5481   -3.3017 O.2       2 UNK        -0.5047 
     32 CA         28.8832   23.1609   -3.1078 C.3       2 UNK         0.0288 
     33 CB         29.9555   22.7676   -4.1377 C.3       2 UNK        -0.2113 
     34 N          28.8491   22.1496   -2.0471 N.am      2 UNK        -0.4145 
     35 C          27.8311   21.9832   -1.1926 C.2       1 UNK         0.5006 
     36 O          26.7708   22.6114   -1.2617 O.2       1 UNK        -0.5103 
     37 C          27.3126   29.5839    4.3901 C.2       5 UNK         0.5055 
     38 O          26.0896   29.7208    4.4560 O.2       5 UNK        -0.5220 
     39 N          28.1995   30.4579    4.8868 N.am      6 UNK        -0.4450 
     40 CA         27.9520   31.7110    5.6158 C.3       6 UNK         0.0367 
     41 CB         27.1292   31.4707    6.8973 C.3       6 UNK        -0.1929 
     42 C          27.3476   32.8474    4.7688 C.2       6 UNK         0.5070 
     43 O          27.5377   34.0125    5.1189 O.2       6 UNK        -0.5237 
     44 N          26.6598   32.5138    3.6696 N.am      7 UNK        -0.4739 
     45 CA         26.1386   33.4537    2.6771 C.3       7 UNK         0.0276 
     46 CB         25.1821   32.7144    1.7278 C.3       7 UNK        -0.1927 
     47 C          27.2612   34.1471    1.8887 C.2       7 UNK         0.5013 
     48 O          27.1457   35.3393    1.6003 O.2       7 UNK        -0.5193 
     49 N          28.3281   33.3986    1.5797 N.am      8 UNK        -0.4253 
     50 CA         29.5341   33.9080    0.9263 C.3       8 UNK         0.0242 
     51 CB         29.3190   34.0125   -0.5955 C.3       8 UNK        -0.2000 
     52 C          30.7903   33.0833    1.2452 C.2       8 UNK         0.4948 
     53 O          31.8802   33.6580    1.2426 O.2       8 UNK        -0.5275 
     54 N          30.6471   31.7736    1.4922 N.am      9 UNK        -0.4246 
     55 CA         31.7606   30.8545    1.7263 C.3       9 UNK         0.0261 
     56 CB         31.5461   29.5846    0.8874 C.3       9 UNK        -0.1959 
     57 C          31.8718   30.4796    3.2089 C.2       9 UNK         0.5033 
     58 O          30.8641   30.4175    3.9193 O.2       9 UNK        -0.5390 
     59 N          33.1039   30.1703    3.6149 N.am      10 UNK        -0.4215 
     60 CA         33.5006   29.6144    4.9021 C.3       10 UNK         0.0240 
     61 CB         33.6354   30.7351    5.9486 C.3       10 UNK        -0.1982 
     62 C          34.8318   28.8846    4.6756 C.2       10 UNK         0.4970 
     63 O          35.5022   29.1471    3.6717 O.2       10 UNK        -0.4916 
     64 N          35.1893   27.9769    5.5903 N.am      11 UNK        -0.4279 
     65 CA         36.3877   27.1250    5.4709 C.3       11 UNK         0.1003 
     66 C          37.7378   27.8480    5.7552 C.2       11 UNK         0.5709 
     67 N          37.7443   29.0702    6.2745 N.am      11 UNK        -0.7358 
     68 O          38.8003   27.2896    5.4920 O.2       11 UNK        -0.4999 
     69 C69        36.2708   25.8235    6.3115 C.3       12 UNK        -0.0954 
     70 S70        34.7070   24.8893    6.1552 S.3       12 UNK        -0.2268 
     71 C71        34.3266   24.9166    4.3710 C.3       12 UNK         0.0203 
     72 H72        24.6812   18.1142    0.6959 H         1 UNK         0.0888 
     73 H73        24.5443   19.7214    1.4113 H         1 UNK         0.0888 
     74 H74        23.8898   19.4152   -0.1985 H         1 UNK         0.0888 
     75 H75        26.4463   20.8946    1.3081 H         1 UNK         0.3017 
     76 H76        28.6233   20.1314   -0.4429 H         1 UNK         0.0873 
     77 H77        28.6019   22.6601    1.2877 H         1 UNK         0.0745 
     78 H78        28.7234   21.0873    2.0254 H         1 UNK         0.0745 
     79 H79        32.3637   20.7778    2.2962 H         1 UNK         0.0705 
     80 H80        30.7726   20.5542    2.9671 H         1 UNK         0.0705 
     81 H81        33.6906   22.6216    3.0096 H         1 UNK         0.1334 
     82 H82        31.9221   25.9005    5.1285 H         1 UNK         0.1417 
     83 H83        29.4423   22.7560    3.6110 H         1 UNK         0.1562 
     84 H84        29.6129   26.0037    5.5200 H         1 UNK         0.0748 
     85 H85        28.7954   24.4632    5.6645 H         1 UNK         0.0748 
     86 H86        27.5246   27.0708    5.4025 H         1 UNK         0.0940 
     87 H87        26.2992   26.9532    4.1702 H         1 UNK         0.0940 
     88 H88        28.9811   28.3813    3.7824 H         1 UNK         0.0703 
     89 H89        27.4003   27.4631    1.8268 H         1 UNK         0.3081 
     90 H90        26.6742   28.5505   -0.2626 H         1 UNK         0.0719 
     91 H91        28.7099   30.7214   -1.0012 H         1 UNK         0.0809 
     92 H92        27.5396   29.9782   -2.0886 H         1 UNK         0.0809 
     93 H93        26.9879   30.9916   -0.7656 H         1 UNK         0.0809 
     94 H94        29.5326   28.4660   -0.9428 H         1 UNK         0.2990 
     95 H95        30.5738   26.5732   -1.3296 H         1 UNK         0.0690 
     96 H96        31.6989   25.1728    0.3871 H         1 UNK         0.0788 
     97 H97        30.1946   25.0097    1.2871 H         1 UNK         0.0788 
     98 H98        30.9799   26.5737    1.1634 H         1 UNK         0.0788 
     99 H99        29.8440   23.8599   -0.8267 H         1 UNK         0.2993 
    100 H100       27.9128   23.1706   -3.6096 H         1 UNK         0.0949 
    101 H101       30.9513   22.7377   -3.6933 H         1 UNK         0.0767 
    102 H102       29.7500   21.7882   -4.5705 H         1 UNK         0.0767 
    103 H103       29.9874   23.4830   -4.9609 H         1 UNK         0.0767 
    104 H104       29.6894   21.6039   -1.9130 H         1 UNK         0.3013 
    105 H105       29.1818   30.3088    4.6491 H         1 UNK         0.3121 
    106 H106       28.9396   32.0593    5.9228 H         1 UNK         0.0774 
    107 H107       27.0654   32.3824    7.4926 H         1 UNK         0.0815 
    108 H108       26.1078   31.1603    6.6758 H         1 UNK         0.0815 
    109 H109       27.5857   30.7054    7.5249 H         1 UNK         0.0815 
    110 H110       26.5231   31.5263    3.4885 H         1 UNK         0.2987 
    111 H111       25.5747   34.2267    3.2039 H         1 UNK         0.0949 
    112 H112       24.7709   33.3947    0.9806 H         1 UNK         0.0806 
    113 H113       25.6853   31.9079    1.1938 H         1 UNK         0.0806 
    114 H114       24.3411   32.2825    2.2705 H         1 UNK         0.0806 
    115 H115       28.3097   32.4148    1.8337 H         1 UNK         0.3010 
    116 H116       29.7285   34.9118    1.3110 H         1 UNK         0.0829 
    117 H117       28.5162   34.7089   -0.8379 H         1 UNK         0.0813 
    118 H118       30.2191   34.3742   -1.0944 H         1 UNK         0.0813 
    119 H119       29.0675   33.0478   -1.0344 H         1 UNK         0.0813 
    120 H120       29.7207   31.3552    1.5411 H         1 UNK         0.3038 
    121 H121       32.6996   31.3129    1.4076 H         1 UNK         0.0769 
    122 H122       30.6896   29.0135    1.2430 H         1 UNK         0.0811 
    123 H123       32.4155   28.9281    0.9425 H         1 UNK         0.0811 
    124 H124       31.3871   29.8237   -0.1641 H         1 UNK         0.0811 
    125 H125       33.8705   30.1939    2.9511 H         1 UNK         0.3204 
    126 H126       32.7521   28.8878    5.2258 H         1 UNK         0.0748 
    127 H127       33.9316   30.3349    6.9189 H         1 UNK         0.0771 
    128 H128       34.3834   31.4725    5.6543 H         1 UNK         0.0771 
    129 H129       32.6896   31.2584    6.0913 H         1 UNK         0.0771 
    130 H130       34.6070   27.8178    6.3993 H         1 UNK         0.2980 
    131 H131       36.4588   26.8173    4.4262 H         1 UNK         0.0545 
    132 H132       38.6252   29.5276    6.4491 H         1 UNK         0.3459 
    133 H133       36.8796   29.5381    6.4914 H         1 UNK         0.3459 
    134 H134       36.3967   26.0540    7.3710 H         1 UNK         0.0616 
    135 H135       37.0834   25.1409    6.0560 H         1 UNK         0.0616 
    136 H136       35.1037   24.3754    3.8292 H         1 UNK         0.0634 
    137 H137       34.3269   25.9366    3.9893 H         1 UNK         0.0634 
@<TRIPOS>BOND
     1    1    2 1    
     2    1   72 1    
     3    1   73 1    
     4    1   74 1    
     5    2    3 2    
     6    2    4 am   BACKBONE|DICT|INTERRES
     7    4    5 1    
     8    4   75 1    
     9    5    6 1    
    10    5   35 1    
    11    5   76 1    
    12    6    7 1    
    13    6   77 1    
    14    6   78 1    
    15    7    8 1    
    16    8    9 1    
    17    8   79 1    
    18    8   80 1    
    19    9   10 ar   
    20    9   14 ar   
    21   10   11 ar   
    22   10   81 1    
    23   11   12 ar   
    24   11   71 1    
    25   12   13 ar   
    26   12   82 1    
    27   13   14 ar   
    28   13   15 1    
    29   14   83 1    
    30   15   16 1    
    31   15   84 1    
    32   15   85 1    
    33   16   17 1    
    34   17   18 1    
    35   17   86 1    
    36   17   87 1    
    37   18   19 1    
    38   18   37 1    
    39   18   88 1    
    40   19   20 am   BACKBONE|DICT|INTERRES
    41   19   89 1    
    42   20   21 2    
    43   20   22 1    
    44   22   23 1    
    45   22   24 1    
    46   22   90 1    
    47   23   91 1    
    48   23   92 1    
    49   23   93 1    
    50   24   25 am   BACKBONE|DICT|INTERRES
    51   24   94 1    
    52   25   26 2    
    53   25   27 1    
    54   27   28 1    
    55   27   29 1    
    56   27   95 1    
    57   28   96 1    
    58   28   97 1    
    59   28   98 1    
    60   29   30 am   BACKBONE|DICT|INTERRES
    61   29   99 1    
    62   30   31 2    
    63   30   32 1    
    64   32   33 1    
    65   32   34 1    
    66   32  100 1    
    67   33  101 1    
    68   33  102 1    
    69   33  103 1    
    70   34   35 am   BACKBONE|DICT|INTERRES
    71   34  104 1    
    72   35   36 2    
    73   37   38 2    
    74   37   39 am   BACKBONE|DICT|INTERRES
    75   39   40 1    
    76   39  105 1    
    77   40   41 1    
    78   40   42 1    
    79   40  106 1    
    80   41  107 1    
    81   41  108 1    
    82   41  109 1    
    83   42   43 2    
    84   42   44 am   BACKBONE|DICT|INTERRES
    85   44   45 1    
    86   44  110 1    
    87   45   46 1    
    88   45   47 1    
    89   45  111 1    
    90   46  112 1    
    91   46  113 1    
    92   46  114 1    
    93   47   48 2    
    94   47   49 am   BACKBONE|DICT|INTERRES
    95   49   50 1    
    96   49  115 1    
    97   50   51 1    
    98   50   52 1    
    99   50  116 1    
   100   51  117 1    
   101   51  118 1    
   102   51  119 1    
   103   52   53 2    
   104   52   54 am   BACKBONE|DICT|INTERRES
   105   54   55 1    
   106   54  120 1    
   107   55   56 1    
   108   55   57 1    
   109   55  121 1    
   110   56  122 1    
   111   56  123 1    
   112   56  124 1    
   113   57   58 2    
   114   57   59 am   BACKBONE|DICT|INTERRES
   115   59   60 1    
   116   59  125 1    
   117   60   61 1    
   118   60   62 1    
   119   60  126 1    
   120   61  127 1    
   121   61  128 1    
   122   61  129 1    
   123   62   63 2    
   124   62   64 am   BACKBONE|DICT|INTERRES
   125   64   65 1    
   126   64  130 1    
   127   65   66 1    
   128   65   69 1    
   129   65  131 1    
   130   66   67 am   BACKBONE|DICT|INTERRES
   131   66   68 2    
   132   67  132 1    
   133   67  133 1    
   134   69   70 1    
   135   69  134 1    
   136   69  135 1    
   137   70   71 1    
   138   71  136 1    
   139   71  137 1    
@<TRIPOS>SUBSTRUCTURE
     1 UNK         1 GROUP             0       ****    0 ROOT    
