@<TRIPOS>MOLECULE
3R136
137   139    1
SMALL
USER_CHARGES


@<TRIPOS>ATOM
      1 CA         27.6216   22.3688   -3.5727 C.3       0 UNK        -0.1979 
      2 C          27.9518   22.0417   -2.1190 C.2       0 UNK         0.4864 
      3 O          27.8598   20.8788   -1.7283 O.2       0 UNK        -0.5359 
      4 N          28.3447   23.0158   -1.2881 N.am      1 UNK        -0.4318 
      5 CA         28.4374   24.4523   -1.5768 C.3       1 UNK         0.0824 
      6 C6         29.6003   25.0993   -0.7799 C.3       12 UNK        -0.0944 
      7 S7         31.2220   24.5668   -1.4259 S.3       12 UNK        -0.2672 
      8 C8         31.7642   23.3294   -0.1986 C.3       12 UNK         0.0333 
      9 C9         32.1688   23.9091    1.1562 C.ar      12 UNK        -0.0807 
     10 C10        32.9168   25.0913    1.2587 C.ar      12 UNK        -0.0894 
     11 C11        33.3034   25.5865    2.5099 C.ar      12 UNK        -0.0804 
     12 C12        32.9613   24.8707    3.6575 C.ar      12 UNK        -0.0824 
     13 C13        32.1719   23.7245    3.5777 C.ar      12 UNK        -0.0762 
     14 C14        31.8056   23.2284    2.3239 C.ar      12 UNK        -0.0782 
     15 C15        31.6834   23.0633    4.8581 C.3       12 UNK         0.0230 
     16 S16        29.8955   23.3122    5.1511 S.3       12 UNK        -0.2608 
     17 C17        29.5641   25.0504    4.6610 C.3       12 UNK        -0.0989 
     18 CA         28.9807   25.1354    3.2216 C.3       5 UNK         0.0716 
     19 N          27.7726   24.3306    3.0607 N.am      5 UNK        -0.4135 
     20 C          27.5967   23.3187    2.2068 C.2       4 UNK         0.5031 
     21 O          28.5023   22.7652    1.5821 O.2       4 UNK        -0.5229 
     22 CA         26.1396   22.9025    1.9388 C.3       4 UNK         0.0329 
     23 CB         25.5803   22.0034    3.0588 C.3       4 UNK        -0.2001 
     24 N          25.2759   24.0592    1.6495 N.am      4 UNK        -0.4303 
     25 C          24.8676   25.0304    2.4825 C.2       3 UNK         0.5044 
     26 O          25.0705   25.0224    3.6980 O.2       3 UNK        -0.5152 
     27 CA         24.2343   26.2597    1.8204 C.3       3 UNK         0.0319 
     28 CB         23.9341   27.4005    2.8113 C.3       3 UNK        -0.2001 
     29 N          25.1459   26.7348    0.7802 N.am      3 UNK        -0.4354 
     30 C          24.7707   27.0988   -0.4500 C.2       2 UNK         0.4964 
     31 O          23.5960   27.1999   -0.8071 O.2       2 UNK        -0.5047 
     32 CA         25.8863   27.3722   -1.4754 C.3       2 UNK         0.0288 
     33 CB         26.3572   28.8311   -1.3660 C.3       2 UNK        -0.2113 
     34 N          27.0594   26.4863   -1.4217 N.am      2 UNK        -0.4145 
     35 C          27.0690   25.1448   -1.3595 C.2       1 UNK         0.5006 
     36 O          26.0529   24.4626   -1.1957 O.2       1 UNK        -0.5103 
     37 C          28.6410   26.5544    2.7099 C.2       5 UNK         0.5055 
     38 O          27.8843   26.6668    1.7394 O.2       5 UNK        -0.5220 
     39 N          29.1786   27.6112    3.3380 N.am      6 UNK        -0.4450 
     40 CA         28.9145   29.0266    3.0323 C.3       6 UNK         0.0367 
     41 CB         27.4458   29.3879    3.3423 C.3       6 UNK        -0.1929 
     42 C          29.3458   29.4728    1.6207 C.2       6 UNK         0.5070 
     43 O          28.7059   30.3474    1.0351 O.2       6 UNK        -0.5237 
     44 N          30.4406   28.8965    1.1034 N.am      7 UNK        -0.4739 
     45 CA         31.0527   29.2921   -0.1729 C.3       7 UNK         0.0276 
     46 CB         32.1060   28.2519   -0.5765 C.3       7 UNK        -0.1927 
     47 C          31.7006   30.6877   -0.1266 C.2       7 UNK         0.5013 
     48 O          31.7890   31.3544   -1.1583 O.2       7 UNK        -0.5193 
     49 N          32.1403   31.0933    1.0670 N.am      8 UNK        -0.4253 
     50 CA         32.7210   32.3870    1.3933 C.3       8 UNK         0.0242 
     51 CB         34.2352   32.3571    1.1146 C.3       8 UNK        -0.2000 
     52 C          32.4352   32.6547    2.8740 C.2       8 UNK         0.4948 
     53 O          32.0688   31.7269    3.6016 O.2       8 UNK        -0.5275 
     54 N          32.6590   33.9006    3.3142 N.am      9 UNK        -0.4246 
     55 CA         32.4725   34.3534    4.7014 C.3       9 UNK         0.0261 
     56 CB         32.7772   35.8576    4.7900 C.3       9 UNK        -0.1959 
     57 C          33.2979   33.5752    5.7463 C.2       9 UNK         0.5033 
     58 O          32.8897   33.5038    6.9058 O.2       9 UNK        -0.5390 
     59 N          34.4131   32.9737    5.3097 N.am      10 UNK        -0.4215 
     60 CA         35.2567   32.0663    6.0892 C.3       10 UNK         0.0240 
     61 CB         36.5538   31.8021    5.3059 C.3       10 UNK        -0.1982 
     62 C          34.5801   30.7319    6.4659 C.2       10 UNK         0.4970 
     63 O          35.0683   30.0707    7.3838 O.2       10 UNK        -0.4916 
     64 N          33.4969   30.3524    5.7741 N.am      11 UNK        -0.4279 
     65 CA         32.7362   29.1182    6.0156 C.3       11 UNK         0.1003 
     66 C          31.1965   29.3217    6.0574 C.2       11 UNK         0.5709 
     67 N          30.6973   30.5392    6.2309 N.am      11 UNK        -0.7358 
     68 O          30.4389   28.3587    5.9512 O.2       11 UNK        -0.4999 
     69 C69        33.1942   27.9477    5.1058 C.3       12 UNK        -0.0954 
     70 S70        33.0695   28.2506    3.3058 S.3       12 UNK        -0.2268 
     71 C71        34.0880   26.8886    2.6330 C.3       12 UNK         0.0203 
     72 H72        26.8433   23.1286   -3.6368 H         1 UNK         0.0888 
     73 H73        28.5077   22.7229   -4.0988 H         1 UNK         0.0888 
     74 H74        27.2595   21.4816   -4.0918 H         1 UNK         0.0888 
     75 H75        28.5123   22.7773   -0.3139 H         1 UNK         0.3017 
     76 H76        28.6625   24.5922   -2.6351 H         1 UNK         0.0873 
     77 H77        29.5832   26.1873   -0.8450 H         1 UNK         0.0745 
     78 H78        29.5268   24.8635    0.2795 H         1 UNK         0.0745 
     79 H79        30.9702   22.5904   -0.0800 H         1 UNK         0.0705 
     80 H80        32.6214   22.7940   -0.6079 H         1 UNK         0.0705 
     81 H81        33.2032   25.6230    0.3625 H         1 UNK         0.1334 
     82 H82        33.2858   25.2179    4.6255 H         1 UNK         0.1417 
     83 H83        31.2003   22.3334    2.2634 H         1 UNK         0.1562 
     84 H84        32.2319   23.4429    5.7216 H         1 UNK         0.0748 
     85 H85        31.8894   21.9929    4.8153 H         1 UNK         0.0748 
     86 H86        30.4818   25.6318    4.7557 H         1 UNK         0.0940 
     87 H87        28.8611   25.4745    5.3805 H         1 UNK         0.0940 
     88 H88        29.7422   24.7786    2.5347 H         1 UNK         0.0703 
     89 H89        26.9319   24.7141    3.4836 H         1 UNK         0.3081 
     90 H90        26.1465   22.3117    1.0210 H         1 UNK         0.0719 
     91 H91        25.5961   22.4943    4.0320 H         1 UNK         0.0809 
     92 H92        24.5536   21.7029    2.8502 H         1 UNK         0.0809 
     93 H93        26.1732   21.0926    3.1511 H         1 UNK         0.0809 
     94 H94        25.1379   24.2240    0.6566 H         1 UNK         0.2990 
     95 H95        23.2922   25.9258    1.3804 H         1 UNK         0.0690 
     96 H96        23.5013   28.2627    2.3040 H         1 UNK         0.0788 
     97 H97        24.8343   27.7319    3.3291 H         1 UNK         0.0788 
     98 H98        23.2210   27.0782    3.5710 H         1 UNK         0.0788 
     99 H99        26.1409   26.6842    0.9990 H         1 UNK         0.2993 
    100 H100       25.4422   27.2344   -2.4633 H         1 UNK         0.0949 
    101 H101       27.0538   29.0894   -2.1638 H         1 UNK         0.0767 
    102 H102       25.5158   29.5220   -1.4367 H         1 UNK         0.0767 
    103 H103       26.8524   29.0182   -0.4126 H         1 UNK         0.0767 
    104 H104       27.9477   26.9526   -1.5284 H         1 UNK         0.3013 
    105 H105       29.7731   27.4623    4.1463 H         1 UNK         0.3121 
    106 H106       29.5372   29.6072    3.7116 H         1 UNK         0.0774 
    107 H107       27.2943   30.4674    3.3091 H         1 UNK         0.0815 
    108 H108       26.7625   28.9450    2.6176 H         1 UNK         0.0815 
    109 H109       27.1526   29.0509    4.3364 H         1 UNK         0.0815 
    110 H110       30.9230   28.1961    1.6493 H         1 UNK         0.2987 
    111 H111       30.2702   29.3108   -0.9347 H         1 UNK         0.0949 
    112 H112       32.9494   28.2433    0.1135 H         1 UNK         0.0806 
    113 H113       31.6834   27.2517   -0.6012 H         1 UNK         0.0806 
    114 H114       32.5014   28.4622   -1.5711 H         1 UNK         0.0806 
    115 H115       31.9798   30.5049    1.8765 H         1 UNK         0.3010 
    116 H116       32.2408   33.1659    0.7971 H         1 UNK         0.0829 
    117 H117       34.4396   32.1409    0.0658 H         1 UNK         0.0813 
    118 H118       34.7005   33.3173    1.3398 H         1 UNK         0.0813 
    119 H119       34.7393   31.5977    1.7143 H         1 UNK         0.0813 
    120 H120       32.9663   34.5994    2.6522 H         1 UNK         0.3038 
    121 H121       31.4202   34.2026    4.9513 H         1 UNK         0.0769 
    122 H122       32.1253   36.4352    4.1343 H         1 UNK         0.0811 
    123 H123       33.8103   36.0777    4.5179 H         1 UNK         0.0811 
    124 H124       32.6218   36.2285    5.8043 H         1 UNK         0.0811 
    125 H125       34.6633   33.0998    4.3403 H         1 UNK         0.3204 
    126 H126       35.5151   32.5716    7.0221 H         1 UNK         0.0748 
    127 H127       37.0908   32.7285    5.1006 H         1 UNK         0.0771 
    128 H128       37.2288   31.1588    5.8723 H         1 UNK         0.0771 
    129 H129       36.3563   31.3078    4.3535 H         1 UNK         0.0771 
    130 H130       33.1336   30.9362    5.0255 H         1 UNK         0.2980 
    131 H131       32.9440   28.7960    7.0373 H         1 UNK         0.0545 
    132 H132       31.3069   31.3359    6.3261 H         1 UNK         0.3459 
    133 H133       29.6986   30.6596    6.2708 H         1 UNK         0.3459 
    134 H134       32.6098   27.0648    5.3562 H         1 UNK         0.0616 
    135 H135       34.2302   27.6999    5.3406 H         1 UNK         0.0616 
    136 H136       34.9659   26.7348    3.2618 H         1 UNK         0.0634 
    137 H137       34.4689   27.1912    1.6571 H         1 UNK         0.0634 
@<TRIPOS>BOND
     1    1    2 1    
     2    1   72 1    
     3    1   73 1    
     4    1   74 1    
     5    2    3 2    
     6    2    4 am   BACKBONE|DICT|INTERRES
     7    4    5 1    
     8    4   75 1    
     9    5    6 1    
    10    5   35 1    
    11    5   76 1    
    12    6    7 1    
    13    6   77 1    
    14    6   78 1    
    15    7    8 1    
    16    8    9 1    
    17    8   79 1    
    18    8   80 1    
    19    9   10 ar   
    20    9   14 ar   
    21   10   11 ar   
    22   10   81 1    
    23   11   12 ar   
    24   11   71 1    
    25   12   13 ar   
    26   12   82 1    
    27   13   14 ar   
    28   13   15 1    
    29   14   83 1    
    30   15   16 1    
    31   15   84 1    
    32   15   85 1    
    33   16   17 1    
    34   17   18 1    
    35   17   86 1    
    36   17   87 1    
    37   18   19 1    
    38   18   37 1    
    39   18   88 1    
    40   19   20 am   BACKBONE|DICT|INTERRES
    41   19   89 1    
    42   20   21 2    
    43   20   22 1    
    44   22   23 1    
    45   22   24 1    
    46   22   90 1    
    47   23   91 1    
    48   23   92 1    
    49   23   93 1    
    50   24   25 am   BACKBONE|DICT|INTERRES
    51   24   94 1    
    52   25   26 2    
    53   25   27 1    
    54   27   28 1    
    55   27   29 1    
    56   27   95 1    
    57   28   96 1    
    58   28   97 1    
    59   28   98 1    
    60   29   30 am   BACKBONE|DICT|INTERRES
    61   29   99 1    
    62   30   31 2    
    63   30   32 1    
    64   32   33 1    
    65   32   34 1    
    66   32  100 1    
    67   33  101 1    
    68   33  102 1    
    69   33  103 1    
    70   34   35 am   BACKBONE|DICT|INTERRES
    71   34  104 1    
    72   35   36 2    
    73   37   38 2    
    74   37   39 am   BACKBONE|DICT|INTERRES
    75   39   40 1    
    76   39  105 1    
    77   40   41 1    
    78   40   42 1    
    79   40  106 1    
    80   41  107 1    
    81   41  108 1    
    82   41  109 1    
    83   42   43 2    
    84   42   44 am   BACKBONE|DICT|INTERRES
    85   44   45 1    
    86   44  110 1    
    87   45   46 1    
    88   45   47 1    
    89   45  111 1    
    90   46  112 1    
    91   46  113 1    
    92   46  114 1    
    93   47   48 2    
    94   47   49 am   BACKBONE|DICT|INTERRES
    95   49   50 1    
    96   49  115 1    
    97   50   51 1    
    98   50   52 1    
    99   50  116 1    
   100   51  117 1    
   101   51  118 1    
   102   51  119 1    
   103   52   53 2    
   104   52   54 am   BACKBONE|DICT|INTERRES
   105   54   55 1    
   106   54  120 1    
   107   55   56 1    
   108   55   57 1    
   109   55  121 1    
   110   56  122 1    
   111   56  123 1    
   112   56  124 1    
   113   57   58 2    
   114   57   59 am   BACKBONE|DICT|INTERRES
   115   59   60 1    
   116   59  125 1    
   117   60   61 1    
   118   60   62 1    
   119   60  126 1    
   120   61  127 1    
   121   61  128 1    
   122   61  129 1    
   123   62   63 2    
   124   62   64 am   BACKBONE|DICT|INTERRES
   125   64   65 1    
   126   64  130 1    
   127   65   66 1    
   128   65   69 1    
   129   65  131 1    
   130   66   67 am   BACKBONE|DICT|INTERRES
   131   66   68 2    
   132   67  132 1    
   133   67  133 1    
   134   69   70 1    
   135   69  134 1    
   136   69  135 1    
   137   70   71 1    
   138   71  136 1    
   139   71  137 1    
@<TRIPOS>SUBSTRUCTURE
     1 UNK         1 GROUP             0       ****    0 ROOT    
