@<TRIPOS>MOLECULE
3R136
137   139    1
SMALL
USER_CHARGES


@<TRIPOS>ATOM
      1 CA         32.8888   23.3847   -1.0106 C.3       0 UNK        -0.1979 
      2 C          31.4841   23.1737   -0.4657 C.2       0 UNK         0.4864 
      3 O          30.8694   22.1451   -0.7519 O.2       0 UNK        -0.5359 
      4 N          30.9787   24.1393    0.3167 N.am      1 UNK        -0.4318 
      5 CA         29.6460   24.1780    0.9313 C.3       1 UNK         0.0824 
      6 C6         29.3863   23.0003    1.9134 C.3       12 UNK        -0.0944 
      7 S7         27.8416   23.1822    2.8712 S.3       12 UNK        -0.2672 
      8 C8         28.4740   23.6289    4.5163 C.3       12 UNK         0.0333 
      9 C9         29.0054   25.0537    4.5503 C.ar      12 UNK        -0.0807 
     10 C10        30.3784   25.3018    4.4692 C.ar      12 UNK        -0.0894 
     11 C11        30.8689   26.6084    4.5507 C.ar      12 UNK        -0.0804 
     12 C12        29.9739   27.6746    4.6894 C.ar      12 UNK        -0.0824 
     13 C13        28.5970   27.4384    4.7734 C.ar      12 UNK        -0.0762 
     14 C14        28.1214   26.1247    4.7039 C.ar      12 UNK        -0.0782 
     15 C15        27.6288   28.5904    5.0147 C.3       12 UNK         0.0230 
     16 S16        26.2875   28.6653    3.7827 S.3       12 UNK        -0.2608 
     17 C17        27.1382   29.3859    2.3401 C.3       12 UNK        -0.0989 
     18 CA         27.3633   28.3643    1.1907 C.3       5 UNK         0.0716 
     19 N          26.1515   27.6883    0.7111 N.am      5 UNK        -0.4135 
     20 C          25.0525   28.2646    0.2026 C.2       4 UNK         0.5031 
     21 O          24.8822   29.4829    0.1386 O.2       4 UNK        -0.5229 
     22 CA         23.9549   27.3425   -0.3649 C.3       4 UNK         0.0329 
     23 CB         23.7670   27.5965   -1.8709 C.3       4 UNK        -0.2001 
     24 N          24.2058   25.9131   -0.1711 N.am      4 UNK        -0.4303 
     25 C          24.0280   25.2188    0.9580 C.2       3 UNK         0.5044 
     26 O          23.6298   25.7217    2.0083 O.2       3 UNK        -0.5152 
     27 CA         24.3598   23.7120    0.9231 C.3       3 UNK         0.0319 
     28 CB         23.1197   22.8831    0.5367 C.3       3 UNK        -0.2001 
     29 N          25.5271   23.3487    0.1009 N.am      3 UNK        -0.4354 
     30 C          25.7018   23.4534   -1.2275 C.2       2 UNK         0.4964 
     31 O          24.8265   23.8517   -1.9973 O.2       2 UNK        -0.5047 
     32 CA         27.0980   23.1011   -1.7862 C.3       2 UNK         0.0288 
     33 CB         27.4276   23.8947   -3.0681 C.3       2 UNK        -0.2113 
     34 N          28.1837   23.2430   -0.8063 N.am      2 UNK        -0.4145 
     35 C          28.5381   24.3451   -0.1286 C.2       1 UNK         0.5006 
     36 O          28.0154   25.4503   -0.2851 O.2       1 UNK        -0.5103 
     37 C          28.1297   28.9731   -0.0002 C.2       5 UNK         0.5055 
     38 O          28.3934   30.1767   -0.0256 O.2       5 UNK        -0.5220 
     39 N          28.4740   28.1162   -0.9737 N.am      6 UNK        -0.4450 
     40 CA         29.3157   28.4521   -2.1281 C.3       6 UNK         0.0367 
     41 CB         29.3203   27.2795   -3.1208 C.3       6 UNK        -0.1929 
     42 C          30.7509   28.8226   -1.7149 C.2       6 UNK         0.5070 
     43 O          31.3669   29.6860   -2.3402 O.2       6 UNK        -0.5237 
     44 N          31.2304   28.2033   -0.6284 N.am      7 UNK        -0.4739 
     45 CA         32.4043   28.6303    0.1266 C.3       7 UNK         0.0276 
     46 CB         33.0076   27.4118    0.8479 C.3       7 UNK        -0.1927 
     47 C          31.9691   29.7333    1.1050 C.2       7 UNK         0.5013 
     48 O          31.7316   29.4555    2.2810 O.2       7 UNK        -0.5193 
     49 N          31.8101   30.9572    0.5877 N.am      8 UNK        -0.4253 
     50 CA         31.3399   32.1318    1.3254 C.3       8 UNK         0.0242 
     51 CB         30.7680   33.1504    0.3217 C.3       8 UNK        -0.2000 
     52 C          32.4497   32.7279    2.2127 C.2       8 UNK         0.4948 
     53 O          32.9064   33.8467    1.9678 O.2       8 UNK        -0.5275 
     54 N          32.8801   31.9570    3.2144 N.am      9 UNK        -0.4246 
     55 CA         33.9229   32.2950    4.1758 C.3       9 UNK         0.0261 
     56 CB         35.3045   31.9808    3.5702 C.3       9 UNK        -0.1959 
     57 C          33.6921   31.4909    5.4595 C.2       9 UNK         0.5033 
     58 O          32.9534   30.5015    5.4446 O.2       9 UNK        -0.5390 
     59 N          34.3556   31.9070    6.5446 N.am      10 UNK        -0.4215 
     60 CA         34.3638   31.2212    7.8385 C.3       10 UNK         0.0240 
     61 CB         34.7577   32.2271    8.9369 C.3       10 UNK        -0.1982 
     62 C          35.2922   29.9923    7.7998 C.2       10 UNK         0.4970 
     63 O          36.3809   30.0210    8.3775 O.2       10 UNK        -0.4916 
     64 N          34.8575   28.9553    7.0763 N.am      11 UNK        -0.4279 
     65 CA         35.5443   27.6663    6.9233 C.3       11 UNK         0.1003 
     66 C          35.7264   26.8809    8.2556 C.2       11 UNK         0.5709 
     67 N          36.7068   25.9892    8.3162 N.am      11 UNK        -0.7358 
     68 O          34.9800   27.0486    9.2192 O.2       11 UNK        -0.4999 
     69 C69        34.8801   26.8034    5.8160 C.3       12 UNK        -0.0954 
     70 S70        33.1191   26.4270    6.1254 S.3       12 UNK        -0.2268 
     71 C71        32.3691   26.8586    4.5266 C.3       12 UNK         0.0203 
     72 H72        33.5288   22.5489   -0.7288 H         1 UNK         0.0888 
     73 H73        32.8632   23.4423   -2.0984 H         1 UNK         0.0888 
     74 H74        33.3432   24.2997   -0.6323 H         1 UNK         0.0888 
     75 H75        31.5507   24.9504    0.4984 H         1 UNK         0.3017 
     76 H76        29.6326   25.0932    1.5261 H         1 UNK         0.0873 
     77 H77        29.3431   22.0444    1.3901 H         1 UNK         0.0745 
     78 H78        30.2257   22.9091    2.6035 H         1 UNK         0.0745 
     79 H79        27.6647   23.5267    5.2408 H         1 UNK         0.0705 
     80 H80        29.2432   22.9181    4.8227 H         1 UNK         0.0705 
     81 H81        31.0712   24.4772    4.3720 H         1 UNK         0.1334 
     82 H82        30.3568   28.6845    4.7584 H         1 UNK         0.1417 
     83 H83        27.0591   25.9350    4.7818 H         1 UNK         0.1562 
     84 H84        28.1515   29.5478    5.0431 H         1 UNK         0.0748 
     85 H85        27.1824   28.4609    6.0015 H         1 UNK         0.0748 
     86 H86        28.0959   29.8008    2.6608 H         1 UNK         0.0940 
     87 H87        26.5515   30.2383    1.9941 H         1 UNK         0.0940 
     88 H88        28.0053   27.5768    1.5898 H         1 UNK         0.0703 
     89 H89        26.2094   26.6802    0.6739 H         1 UNK         0.3081 
     90 H90        23.0243   27.5995    0.1453 H         1 UNK         0.0719 
     91 H91        23.5243   28.6417   -2.0675 H         1 UNK         0.0809 
     92 H92        24.6707   27.3594   -2.4341 H         1 UNK         0.0809 
     93 H93        22.9521   26.9962   -2.2761 H         1 UNK         0.0809 
     94 H94        24.4947   25.3824   -0.9894 H         1 UNK         0.2990 
     95 H95        24.6302   23.4360    1.9438 H         1 UNK         0.0690 
     96 H96        23.3279   21.8141    0.5815 H         1 UNK         0.0788 
     97 H97        22.7689   23.1151   -0.4693 H         1 UNK         0.0788 
     98 H98        22.2927   23.0810    1.2199 H         1 UNK         0.0788 
     99 H99        26.3273   23.0378    0.6353 H         1 UNK         0.2993 
    100 H100       27.0595   22.0431   -2.0497 H         1 UNK         0.0949 
    101 H101       27.3681   24.9696   -2.8990 H         1 UNK         0.0767 
    102 H102       28.4288   23.6655   -3.4333 H         1 UNK         0.0767 
    103 H103       26.7281   23.6539   -3.8695 H         1 UNK         0.0767 
    104 H104       28.7544   22.4179   -0.6552 H         1 UNK         0.3013 
    105 H105       28.2170   27.1359   -0.8598 H         1 UNK         0.3121 
    106 H106       28.8795   29.3226   -2.6227 H         1 UNK         0.0774 
    107 H107       29.6842   26.3593   -2.6617 H         1 UNK         0.0815 
    108 H108       28.3198   27.0908   -3.5094 H         1 UNK         0.0815 
    109 H109       29.9618   27.4944   -3.9765 H         1 UNK         0.0815 
    110 H110       30.6196   27.5460   -0.1682 H         1 UNK         0.2987 
    111 H111       33.1613   29.0397   -0.5465 H         1 UNK         0.0949 
    112 H112       33.3821   26.6781    0.1349 H         1 UNK         0.0806 
    113 H113       33.8479   27.7090    1.4771 H         1 UNK         0.0806 
    114 H114       32.2770   26.9206    1.4907 H         1 UNK         0.0806 
    115 H115       31.9944   31.0865   -0.3982 H         1 UNK         0.3010 
    116 H116       30.5240   31.8259    1.9844 H         1 UNK         0.0829 
    117 H117       31.5234   33.4882   -0.3890 H         1 UNK         0.0813 
    118 H118       30.3843   34.0325    0.8360 H         1 UNK         0.0813 
    119 H119       29.9406   32.7223   -0.2452 H         1 UNK         0.0813 
    120 H120       32.4533   31.0425    3.3523 H         1 UNK         0.3038 
    121 H121       33.8575   33.3575    4.4202 H         1 UNK         0.0769 
    122 H122       35.4804   32.5569    2.6617 H         1 UNK         0.0811 
    123 H123       35.3998   30.9236    3.3184 H         1 UNK         0.0811 
    124 H124       36.1085   32.2253    4.2653 H         1 UNK         0.0811 
    125 H125       34.9648   32.7086    6.4605 H         1 UNK         0.3204 
    126 H126       33.3545   30.8667    8.0603 H         1 UNK         0.0748 
    127 H127       35.7499   32.6477    8.7678 H         1 UNK         0.0771 
    128 H128       34.0482   33.0532    8.9901 H         1 UNK         0.0771 
    129 H129       34.7689   31.7484    9.9172 H         1 UNK         0.0771 
    130 H130       33.9667   29.0458    6.6012 H         1 UNK         0.2980 
    131 H131       36.5507   27.9087    6.5763 H         1 UNK         0.0545 
    132 H132       36.8360   25.4618    9.1655 H         1 UNK         0.3459 
    133 H133       37.3211   25.8335    7.5322 H         1 UNK         0.3459 
    134 H134       35.4152   25.8609    5.6877 H         1 UNK         0.0616 
    135 H135       34.9704   27.3213    4.8598 H         1 UNK         0.0616 
    136 H136       32.8313   26.2605    3.7407 H         1 UNK         0.0634 
    137 H137       32.5836   27.9035    4.2977 H         1 UNK         0.0634 
@<TRIPOS>BOND
     1    1    2 1    
     2    1   72 1    
     3    1   73 1    
     4    1   74 1    
     5    2    3 2    
     6    2    4 am   BACKBONE|DICT|INTERRES
     7    4    5 1    
     8    4   75 1    
     9    5    6 1    
    10    5   35 1    
    11    5   76 1    
    12    6    7 1    
    13    6   77 1    
    14    6   78 1    
    15    7    8 1    
    16    8    9 1    
    17    8   79 1    
    18    8   80 1    
    19    9   10 ar   
    20    9   14 ar   
    21   10   11 ar   
    22   10   81 1    
    23   11   12 ar   
    24   11   71 1    
    25   12   13 ar   
    26   12   82 1    
    27   13   14 ar   
    28   13   15 1    
    29   14   83 1    
    30   15   16 1    
    31   15   84 1    
    32   15   85 1    
    33   16   17 1    
    34   17   18 1    
    35   17   86 1    
    36   17   87 1    
    37   18   19 1    
    38   18   37 1    
    39   18   88 1    
    40   19   20 am   BACKBONE|DICT|INTERRES
    41   19   89 1    
    42   20   21 2    
    43   20   22 1    
    44   22   23 1    
    45   22   24 1    
    46   22   90 1    
    47   23   91 1    
    48   23   92 1    
    49   23   93 1    
    50   24   25 am   BACKBONE|DICT|INTERRES
    51   24   94 1    
    52   25   26 2    
    53   25   27 1    
    54   27   28 1    
    55   27   29 1    
    56   27   95 1    
    57   28   96 1    
    58   28   97 1    
    59   28   98 1    
    60   29   30 am   BACKBONE|DICT|INTERRES
    61   29   99 1    
    62   30   31 2    
    63   30   32 1    
    64   32   33 1    
    65   32   34 1    
    66   32  100 1    
    67   33  101 1    
    68   33  102 1    
    69   33  103 1    
    70   34   35 am   BACKBONE|DICT|INTERRES
    71   34  104 1    
    72   35   36 2    
    73   37   38 2    
    74   37   39 am   BACKBONE|DICT|INTERRES
    75   39   40 1    
    76   39  105 1    
    77   40   41 1    
    78   40   42 1    
    79   40  106 1    
    80   41  107 1    
    81   41  108 1    
    82   41  109 1    
    83   42   43 2    
    84   42   44 am   BACKBONE|DICT|INTERRES
    85   44   45 1    
    86   44  110 1    
    87   45   46 1    
    88   45   47 1    
    89   45  111 1    
    90   46  112 1    
    91   46  113 1    
    92   46  114 1    
    93   47   48 2    
    94   47   49 am   BACKBONE|DICT|INTERRES
    95   49   50 1    
    96   49  115 1    
    97   50   51 1    
    98   50   52 1    
    99   50  116 1    
   100   51  117 1    
   101   51  118 1    
   102   51  119 1    
   103   52   53 2    
   104   52   54 am   BACKBONE|DICT|INTERRES
   105   54   55 1    
   106   54  120 1    
   107   55   56 1    
   108   55   57 1    
   109   55  121 1    
   110   56  122 1    
   111   56  123 1    
   112   56  124 1    
   113   57   58 2    
   114   57   59 am   BACKBONE|DICT|INTERRES
   115   59   60 1    
   116   59  125 1    
   117   60   61 1    
   118   60   62 1    
   119   60  126 1    
   120   61  127 1    
   121   61  128 1    
   122   61  129 1    
   123   62   63 2    
   124   62   64 am   BACKBONE|DICT|INTERRES
   125   64   65 1    
   126   64  130 1    
   127   65   66 1    
   128   65   69 1    
   129   65  131 1    
   130   66   67 am   BACKBONE|DICT|INTERRES
   131   66   68 2    
   132   67  132 1    
   133   67  133 1    
   134   69   70 1    
   135   69  134 1    
   136   69  135 1    
   137   70   71 1    
   138   71  136 1    
   139   71  137 1    
@<TRIPOS>SUBSTRUCTURE
     1 UNK         1 GROUP             0       ****    0 ROOT    
