@<TRIPOS>MOLECULE
3R136
137   139    1
SMALL
USER_CHARGES


@<TRIPOS>ATOM
      1 CA         25.5593   20.9129    2.8544 C.3       0 UNK        -0.1979 
      2 C          26.4198   21.8149    1.9839 C.2       0 UNK         0.4864 
      3 O          25.9363   22.8369    1.4960 O.2       0 UNK        -0.5359 
      4 N          27.7000   21.4633    1.7963 N.am      1 UNK        -0.4318 
      5 CA         28.6562   22.2043    0.9619 C.3       1 UNK         0.0824 
      6 C6         29.9793   21.4196    0.7780 C.3       12 UNK        -0.0944 
      7 S7         30.8029   21.8062   -0.8041 S.3       12 UNK        -0.2672 
      8 C8         32.4894   22.2346   -0.2682 C.3       12 UNK         0.0333 
      9 C9         32.5390   23.5705    0.4582 C.ar      12 UNK        -0.0807 
     10 C10        32.6431   23.6126    1.8503 C.ar      12 UNK        -0.0894 
     11 C11        32.6956   24.8372    2.5188 C.ar      12 UNK        -0.0804 
     12 C12        32.6603   26.0280    1.7851 C.ar      12 UNK        -0.0824 
     13 C13        32.5571   26.0018    0.3884 C.ar      12 UNK        -0.0762 
     14 C14        32.4971   24.7661   -0.2651 C.ar      12 UNK        -0.0782 
     15 C15        32.5413   27.2846   -0.4438 C.3       12 UNK         0.0230 
     16 S16        31.5889   28.6712    0.2702 S.3       12 UNK        -0.2608 
     17 C17        29.9289   27.9461    0.4724 C.3       12 UNK        -0.0989 
     18 CA         29.0645   27.9693   -0.8139 C.3       5 UNK         0.0716 
     19 N          27.9934   26.9747   -0.7187 N.am      5 UNK        -0.4135 
     20 C          27.0411   26.7114   -1.6241 C.2       4 UNK         0.5031 
     21 O          26.9749   27.2447   -2.7329 O.2       4 UNK        -0.5229 
     22 CA         25.9832   25.6586   -1.2354 C.3       4 UNK         0.0329 
     23 CB         26.3342   24.2934   -1.8484 C.3       4 UNK        -0.2001 
     24 N          25.8161   25.5073    0.2143 N.am      4 UNK        -0.4303 
     25 C          25.2577   26.4224    1.0212 C.2       3 UNK         0.5044 
     26 O          24.7357   27.4624    0.6197 O.2       3 UNK        -0.5152 
     27 CA         25.3044   26.1406    2.5323 C.3       3 UNK         0.0319 
     28 CB         24.0818   25.3216    2.9777 C.3       3 UNK        -0.2001 
     29 N          26.5364   25.4452    2.9153 N.am      3 UNK        -0.4354 
     30 C          27.7087   26.0611    3.1331 C.2       2 UNK         0.4964 
     31 O          27.8467   27.2825    3.1109 O.2       2 UNK        -0.5047 
     32 CA         28.9405   25.1780    3.4140 C.3       2 UNK         0.0288 
     33 CB         29.1360   25.0056    4.9291 C.3       2 UNK        -0.2113 
     34 N          28.8778   23.8580    2.7776 N.am      2 UNK        -0.4145 
     35 C          28.8840   23.6531    1.4507 C.2       1 UNK         0.5006 
     36 O          28.9741   24.5623    0.6274 O.2       1 UNK        -0.5103 
     37 C          28.5258   29.3881   -1.1023 C.2       5 UNK         0.5055 
     38 O          27.5142   29.7927   -0.5243 O.2       5 UNK        -0.5220 
     39 N          29.2264   30.1209   -1.9788 N.am      6 UNK        -0.4450 
     40 CA         28.9174   31.5116   -2.3267 C.3       6 UNK         0.0367 
     41 CB         29.5873   31.8572   -3.6667 C.3       6 UNK        -0.1929 
     42 C          29.3457   32.5133   -1.2383 C.2       6 UNK         0.5070 
     43 O          28.7898   33.6107   -1.1757 O.2       6 UNK        -0.5237 
     44 N          30.3284   32.1296   -0.4139 N.am      7 UNK        -0.4739 
     45 CA         30.7984   32.8914    0.7424 C.3       7 UNK         0.0276 
     46 CB         32.2413   32.4590    1.0517 C.3       7 UNK        -0.1927 
     47 C          29.8925   32.6624    1.9641 C.2       7 UNK         0.5013 
     48 O          29.0701   31.7422    1.9688 O.2       7 UNK        -0.5193 
     49 N          30.0893   33.4792    3.0075 N.am      8 UNK        -0.4253 
     50 CA         29.4282   33.3578    4.3104 C.3       8 UNK         0.0242 
     51 CB         29.5906   34.6823    5.0793 C.3       8 UNK        -0.2000 
     52 C          29.9735   32.1509    5.0990 C.2       8 UNK         0.4948 
     53 O          30.7597   32.3244    6.0327 O.2       8 UNK        -0.5275 
     54 N          29.5953   30.9442    4.6578 N.am      9 UNK        -0.4246 
     55 CA         29.9849   29.6082    5.1300 C.3       9 UNK         0.0261 
     56 CB         29.5873   29.3797    6.6009 C.3       9 UNK        -0.1959 
     57 C          31.4619   29.2491    4.8944 C.2       9 UNK         0.5033 
     58 O          31.7366   28.1189    4.4984 O.2       9 UNK        -0.5390 
     59 N          32.3802   30.1912    5.1478 N.am      10 UNK        -0.4215 
     60 CA         33.8425   30.1407    4.9940 C.3       10 UNK         0.0240 
     61 CB         34.2505   29.9052    3.5265 C.3       10 UNK        -0.1982 
     62 C          34.5682   29.1546    5.9281 C.2       10 UNK         0.4970 
     63 O          35.5774   29.5332    6.5238 O.2       10 UNK        -0.4916 
     64 N          34.0601   27.9233    6.0407 N.am      11 UNK        -0.4279 
     65 CA         34.6264   26.8424    6.8646 C.3       11 UNK         0.1003 
     66 C          34.4200   27.0166    8.3981 C.2       11 UNK         0.5709 
     67 N          33.5972   27.9509    8.8605 N.am      11 UNK        -0.7358 
     68 O          35.0262   26.2926    9.1846 O.2       11 UNK        -0.4999 
     69 C69        34.1481   25.4412    6.3986 C.3       12 UNK        -0.0954 
     70 S70        34.4632   25.1291    4.6275 S.3       12 UNK        -0.2268 
     71 C71        32.7654   24.8713    4.0355 C.3       12 UNK         0.0203 
     72 H72        26.1186   20.0590    3.2359 H         1 UNK         0.0888 
     73 H73        25.1706   21.4729    3.7045 H         1 UNK         0.0888 
     74 H74        24.7139   20.5364    2.2794 H         1 UNK         0.0888 
     75 H75        28.0467   20.6154    2.2228 H         1 UNK         0.3017 
     76 H76        28.1790   22.2823   -0.0172 H         1 UNK         0.0873 
     77 H77        29.7777   20.3474    0.7550 H         1 UNK         0.0745 
     78 H78        30.6533   21.5704    1.6221 H         1 UNK         0.0745 
     79 H79        32.8858   21.4345    0.3590 H         1 UNK         0.0705 
     80 H80        33.1352   22.2782   -1.1464 H         1 UNK         0.0705 
     81 H81        32.6788   22.6919    2.4163 H         1 UNK         0.1334 
     82 H82        32.7063   26.9743    2.3062 H         1 UNK         0.1417 
     83 H83        32.4189   24.7290   -1.3432 H         1 UNK         0.1562 
     84 H84        32.1468   27.0832   -1.4408 H         1 UNK         0.0748 
     85 H85        33.5716   27.6134   -0.5846 H         1 UNK         0.0748 
     86 H86        29.4245   28.4701    1.2874 H         1 UNK         0.0940 
     87 H87        30.0543   26.9239    0.8278 H         1 UNK         0.0940 
     88 H88        29.6820   27.6547   -1.6572 H         1 UNK         0.0703 
     89 H89        28.0056   26.3976    0.1123 H         1 UNK         0.3081 
     90 H90        25.0271   25.9836   -1.6509 H         1 UNK         0.0719 
     91 H91        27.3104   23.9421   -1.5142 H         1 UNK         0.0809 
     92 H92        25.5954   23.5356   -1.5864 H         1 UNK         0.0809 
     93 H93        26.3672   24.3536   -2.9370 H         1 UNK         0.0809 
     94 H94        26.1384   24.6371    0.6266 H         1 UNK         0.2990 
     95 H95        25.2655   27.1015    3.0505 H         1 UNK         0.0690 
     96 H96        23.1567   25.8525    2.7491 H         1 UNK         0.0788 
     97 H97        24.0948   25.1427    4.0529 H         1 UNK         0.0788 
     98 H98        24.0311   24.3546    2.4771 H         1 UNK         0.0788 
     99 H99        26.5060   24.4341    2.8934 H         1 UNK         0.2993 
    100 H100       29.8132   25.6990    3.0134 H         1 UNK         0.0949 
    101 H101       30.0162   24.4044    5.1545 H         1 UNK         0.0767 
    102 H102       29.2746   25.9739    5.4129 H         1 UNK         0.0767 
    103 H103       28.2747   24.5261    5.3961 H         1 UNK         0.0767 
    104 H104       28.7781   23.0596    3.3873 H         1 UNK         0.3013 
    105 H105       30.0459   29.7168   -2.4098 H         1 UNK         0.3121 
    106 H106       27.8364   31.6060   -2.4524 H         1 UNK         0.0774 
    107 H107       30.6737   31.7789   -3.6087 H         1 UNK         0.0815 
    108 H108       29.3507   32.8787   -3.9678 H         1 UNK         0.0815 
    109 H109       29.2434   31.1988   -4.4646 H         1 UNK         0.0815 
    110 H110       30.6802   31.1869   -0.5008 H         1 UNK         0.2987 
    111 H111       30.7901   33.9566    0.4999 H         1 UNK         0.0949 
    112 H112       32.2896   31.4040    1.3208 H         1 UNK         0.0806 
    113 H113       32.8952   32.6148    0.1934 H         1 UNK         0.0806 
    114 H114       32.6612   33.0273    1.8825 H         1 UNK         0.0806 
    115 H115       30.8005   34.1927    2.9346 H         1 UNK         0.3010 
    116 H116       28.3601   33.1947    4.1492 H         1 UNK         0.0829 
    117 H117       29.1338   35.5126    4.5405 H         1 UNK         0.0813 
    118 H118       29.1077   34.6269    6.0560 H         1 UNK         0.0813 
    119 H119       30.6397   34.9286    5.2488 H         1 UNK         0.0813 
    120 H120       29.0561   30.9459    3.7954 H         1 UNK         0.3038 
    121 H121       29.4038   28.9110    4.5253 H         1 UNK         0.0769 
    122 H122       28.5210   29.5475    6.7523 H         1 UNK         0.0811 
    123 H123       29.7993   28.3534    6.9040 H         1 UNK         0.0811 
    124 H124       30.1306   30.0365    7.2807 H         1 UNK         0.0811 
    125 H125       32.0115   31.0636    5.5248 H         1 UNK         0.3204 
    126 H126       34.1935   31.1365    5.2696 H         1 UNK         0.0748 
    127 H127       35.3358   29.9118    3.4173 H         1 UNK         0.0771 
    128 H128       33.8941   28.9469    3.1482 H         1 UNK         0.0771 
    129 H129       33.8589   30.6880    2.8797 H         1 UNK         0.0771 
    130 H130       33.2263   27.7069    5.4993 H         1 UNK         0.2980 
    131 H131       35.7075   26.8708    6.7156 H         1 UNK         0.0545 
    132 H132       33.4775   28.0548    9.8557 H         1 UNK         0.3459 
    133 H133       33.1019   28.5537    8.2245 H         1 UNK         0.3459 
    134 H134       33.0850   25.3164    6.6124 H         1 UNK         0.0616 
    135 H135       34.6616   24.6588    6.9603 H         1 UNK         0.0616 
    136 H136       32.1163   25.6594    4.4116 H         1 UNK         0.0634 
    137 H137       32.3839   23.9394    4.4554 H         1 UNK         0.0634 
@<TRIPOS>BOND
     1    1    2 1    
     2    1   72 1    
     3    1   73 1    
     4    1   74 1    
     5    2    3 2    
     6    2    4 am   BACKBONE|DICT|INTERRES
     7    4    5 1    
     8    4   75 1    
     9    5    6 1    
    10    5   35 1    
    11    5   76 1    
    12    6    7 1    
    13    6   77 1    
    14    6   78 1    
    15    7    8 1    
    16    8    9 1    
    17    8   79 1    
    18    8   80 1    
    19    9   10 ar   
    20    9   14 ar   
    21   10   11 ar   
    22   10   81 1    
    23   11   12 ar   
    24   11   71 1    
    25   12   13 ar   
    26   12   82 1    
    27   13   14 ar   
    28   13   15 1    
    29   14   83 1    
    30   15   16 1    
    31   15   84 1    
    32   15   85 1    
    33   16   17 1    
    34   17   18 1    
    35   17   86 1    
    36   17   87 1    
    37   18   19 1    
    38   18   37 1    
    39   18   88 1    
    40   19   20 am   BACKBONE|DICT|INTERRES
    41   19   89 1    
    42   20   21 2    
    43   20   22 1    
    44   22   23 1    
    45   22   24 1    
    46   22   90 1    
    47   23   91 1    
    48   23   92 1    
    49   23   93 1    
    50   24   25 am   BACKBONE|DICT|INTERRES
    51   24   94 1    
    52   25   26 2    
    53   25   27 1    
    54   27   28 1    
    55   27   29 1    
    56   27   95 1    
    57   28   96 1    
    58   28   97 1    
    59   28   98 1    
    60   29   30 am   BACKBONE|DICT|INTERRES
    61   29   99 1    
    62   30   31 2    
    63   30   32 1    
    64   32   33 1    
    65   32   34 1    
    66   32  100 1    
    67   33  101 1    
    68   33  102 1    
    69   33  103 1    
    70   34   35 am   BACKBONE|DICT|INTERRES
    71   34  104 1    
    72   35   36 2    
    73   37   38 2    
    74   37   39 am   BACKBONE|DICT|INTERRES
    75   39   40 1    
    76   39  105 1    
    77   40   41 1    
    78   40   42 1    
    79   40  106 1    
    80   41  107 1    
    81   41  108 1    
    82   41  109 1    
    83   42   43 2    
    84   42   44 am   BACKBONE|DICT|INTERRES
    85   44   45 1    
    86   44  110 1    
    87   45   46 1    
    88   45   47 1    
    89   45  111 1    
    90   46  112 1    
    91   46  113 1    
    92   46  114 1    
    93   47   48 2    
    94   47   49 am   BACKBONE|DICT|INTERRES
    95   49   50 1    
    96   49  115 1    
    97   50   51 1    
    98   50   52 1    
    99   50  116 1    
   100   51  117 1    
   101   51  118 1    
   102   51  119 1    
   103   52   53 2    
   104   52   54 am   BACKBONE|DICT|INTERRES
   105   54   55 1    
   106   54  120 1    
   107   55   56 1    
   108   55   57 1    
   109   55  121 1    
   110   56  122 1    
   111   56  123 1    
   112   56  124 1    
   113   57   58 2    
   114   57   59 am   BACKBONE|DICT|INTERRES
   115   59   60 1    
   116   59  125 1    
   117   60   61 1    
   118   60   62 1    
   119   60  126 1    
   120   61  127 1    
   121   61  128 1    
   122   61  129 1    
   123   62   63 2    
   124   62   64 am   BACKBONE|DICT|INTERRES
   125   64   65 1    
   126   64  130 1    
   127   65   66 1    
   128   65   69 1    
   129   65  131 1    
   130   66   67 am   BACKBONE|DICT|INTERRES
   131   66   68 2    
   132   67  132 1    
   133   67  133 1    
   134   69   70 1    
   135   69  134 1    
   136   69  135 1    
   137   70   71 1    
   138   71  136 1    
   139   71  137 1    
@<TRIPOS>SUBSTRUCTURE
     1 UNK         1 GROUP             0       ****    0 ROOT    
