@<TRIPOS>MOLECULE
3R136
137   139    1
SMALL
USER_CHARGES


@<TRIPOS>ATOM
      1 CA         27.8512   20.4669   -2.2273 C.3       0 UNK        -0.1979 
      2 C          28.6867   21.0198   -1.0820 C.2       0 UNK         0.4864 
      3 O          29.8996   21.1675   -1.2300 O.2       0 UNK        -0.5359 
      4 N          28.0459   21.3224    0.0534 N.am      1 UNK        -0.4318 
      5 CA         28.6762   21.9035    1.2456 C.3       1 UNK         0.0824 
      6 C6         29.4336   20.8476    2.0913 C.3       12 UNK        -0.0944 
      7 S7         30.7388   21.5665    3.1439 S.3       12 UNK        -0.2672 
      8 C8         32.1207   21.7518    1.9696 C.3       12 UNK         0.0333 
      9 C9         32.3266   23.2056    1.5645 C.ar      12 UNK        -0.0807 
     10 C10        32.9925   24.0789    2.4278 C.ar      12 UNK        -0.0894 
     11 C11        33.2240   25.4081    2.0620 C.ar      12 UNK        -0.0804 
     12 C12        32.7772   25.8669    0.8162 C.ar      12 UNK        -0.0824 
     13 C13        32.1225   24.9979   -0.0653 C.ar      12 UNK        -0.0762 
     14 C14        31.8990   23.6714    0.3177 C.ar      12 UNK        -0.0782 
     15 C15        31.7213   25.4575   -1.4617 C.3       12 UNK         0.0230 
     16 S16        30.0295   26.1392   -1.5224 S.3       12 UNK        -0.2608 
     17 C17        30.3262   27.8933   -1.9675 C.3       12 UNK        -0.0989 
     18 CA         29.7026   28.9240   -0.9942 C.3       5 UNK         0.0716 
     19 N          28.2398   28.8420   -0.9508 N.am      5 UNK        -0.4135 
     20 C          27.4442   29.6877   -0.2797 C.2       4 UNK         0.5031 
     21 O          27.8614   30.6816    0.3139 O.2       4 UNK        -0.5229 
     22 CA         25.9375   29.3752   -0.2173 C.3       4 UNK         0.0329 
     23 CB         25.1564   30.3438   -1.1198 C.3       4 UNK        -0.2001 
     24 N          25.5588   27.9969   -0.5508 N.am      4 UNK        -0.4303 
     25 C          25.9792   26.8889    0.0750 C.2       3 UNK         0.5044 
     26 O          26.8308   26.8835    0.9681 O.2       3 UNK        -0.5152 
     27 CA         25.3785   25.5714   -0.4472 C.3       3 UNK         0.0319 
     28 CB         26.0595   25.1575   -1.7635 C.3       3 UNK        -0.2001 
     29 N          25.5109   24.4693    0.5031 N.am      3 UNK        -0.4354 
     30 C          24.9114   24.3720    1.6988 C.2       2 UNK         0.4964 
     31 O          24.0903   25.1884    2.1196 O.2       2 UNK        -0.5047 
     32 CA         25.2616   23.1399    2.5638 C.3       2 UNK         0.0288 
     33 CB         24.0346   22.2263    2.7292 C.3       2 UNK        -0.2113 
     34 N          26.3750   22.3440    2.0282 N.am      2 UNK        -0.4145 
     35 C          27.6629   22.7251    2.0666 C.2       1 UNK         0.5006 
     36 O          28.0445   23.7277    2.6677 O.2       1 UNK        -0.5103 
     37 C          30.3468   28.8550    0.4054 C.2       5 UNK         0.5055 
     38 O          31.3024   29.5870    0.6642 O.2       5 UNK        -0.5220 
     39 N          29.7910   28.0151    1.2908 N.am      6 UNK        -0.4450 
     40 CA         30.2510   27.8674    2.6691 C.3       6 UNK         0.0367 
     41 CB         29.6570   26.5917    3.2810 C.3       6 UNK        -0.1929 
     42 C          29.9298   29.0982    3.5266 C.2       6 UNK         0.5070 
     43 O          30.7570   29.4965    4.3461 O.2       6 UNK        -0.5237 
     44 N          28.7578   29.7049    3.2919 N.am      7 UNK        -0.4739 
     45 CA         28.3301   30.9529    3.9263 C.3       7 UNK         0.0276 
     46 CB         26.8281   31.1725    3.6838 C.3       7 UNK        -0.1927 
     47 C          29.1496   32.1594    3.4411 C.2       7 UNK         0.5013 
     48 O          29.5258   32.9969    4.2606 O.2       7 UNK        -0.5193 
     49 N          29.4376   32.2080    2.1318 N.am      8 UNK        -0.4253 
     50 CA         30.2886   33.2171    1.4964 C.3       8 UNK         0.0242 
     51 CB         30.2025   33.0814   -0.0322 C.3       8 UNK        -0.2000 
     52 C          31.7495   33.1439    1.9705 C.2       8 UNK         0.4948 
     53 O          32.3437   34.1851    2.2530 O.2       8 UNK        -0.5275 
     54 N          32.2927   31.9218    2.0731 N.am      9 UNK        -0.4246 
     55 CA         33.6208   31.6513    2.6308 C.3       9 UNK         0.0261 
     56 CB         34.0241   30.2061    2.2971 C.3       9 UNK        -0.1959 
     57 C          33.6974   31.8759    4.1514 C.2       9 UNK         0.5033 
     58 O          34.7755   32.1956    4.6541 O.2       9 UNK        -0.5390 
     59 N          32.5667   31.6749    4.8455 N.am      10 UNK        -0.4215 
     60 CA         32.3917   31.6660    6.3019 C.3       10 UNK         0.0240 
     61 CB         32.6491   33.0633    6.9051 C.3       10 UNK        -0.1982 
     62 C          33.2093   30.5452    6.9737 C.2       10 UNK         0.4970 
     63 O          33.7699   30.7515    8.0523 O.2       10 UNK        -0.4916 
     64 N          33.2816   29.3867    6.3057 N.am      11 UNK        -0.4279 
     65 CA         34.0246   28.2052    6.7585 C.3       11 UNK         0.1003 
     66 C          33.2823   27.3975    7.8614 C.2       11 UNK         0.5709 
     67 N          33.9792   26.4944    8.5386 N.am      11 UNK        -0.7358 
     68 O          32.0892   27.5692    8.1078 O.2       11 UNK        -0.4999 
     69 C69        34.4894   27.3335    5.5607 C.3       12 UNK        -0.0954 
     70 S70        33.1374   26.6323    4.5580 S.3       12 UNK        -0.2268 
     71 C71        34.0148   26.3159    2.9949 C.3       12 UNK         0.0203 
     72 H72        28.2164   19.4815   -2.5154 H         1 UNK         0.0888 
     73 H73        26.7988   20.3732   -1.9602 H         1 UNK         0.0888 
     74 H74        27.9236   21.1237   -3.0938 H         1 UNK         0.0888 
     75 H75        27.0495   21.1744    0.0979 H         1 UNK         0.3017 
     76 H76        29.4000   22.6350    0.8842 H         1 UNK         0.0873 
     77 H77        29.9008   20.1020    1.4464 H         1 UNK         0.0745 
     78 H78        28.7415   20.2875    2.7227 H         1 UNK         0.0745 
     79 H79        31.9634   21.1267    1.0892 H         1 UNK         0.0705 
     80 H80        33.0304   21.3788    2.4424 H         1 UNK         0.0705 
     81 H81        33.3418   23.7202    3.3867 H         1 UNK         0.1334 
     82 H82        32.9632   26.8905    0.5199 H         1 UNK         0.1417 
     83 H83        31.4104   22.9950   -0.3689 H         1 UNK         0.1562 
     84 H84        31.7684   24.6126   -2.1506 H         1 UNK         0.0748 
     85 H85        32.4528   26.1732   -1.8371 H         1 UNK         0.0748 
     86 H86        31.3953   28.0889   -2.0620 H         1 UNK         0.0940 
     87 H87        29.9225   28.0521   -2.9688 H         1 UNK         0.0940 
     88 H88        29.9361   29.9152   -1.3886 H         1 UNK         0.0703 
     89 H89        27.8235   28.0368   -1.3937 H         1 UNK         0.3081 
     90 H90        25.6269   29.5494    0.8149 H         1 UNK         0.0719 
     91 H91        25.3964   30.1961   -2.1735 H         1 UNK         0.0809 
     92 H92        24.0799   30.2215   -0.9983 H         1 UNK         0.0809 
     93 H93        25.3899   31.3813   -0.8752 H         1 UNK         0.0809 
     94 H94        24.8788   27.8943   -1.2909 H         1 UNK         0.2990 
     95 H95        24.3137   25.7286   -0.6317 H         1 UNK         0.0690 
     96 H96        27.1259   24.9729   -1.6249 H         1 UNK         0.0788 
     97 H97        25.9599   25.9322   -2.5248 H         1 UNK         0.0788 
     98 H98        25.6141   24.2502   -2.1725 H         1 UNK         0.0788 
     99 H99        26.1892   23.7641    0.2657 H         1 UNK         0.2993 
    100 H100       25.5459   23.5132    3.5504 H         1 UNK         0.0949 
    101 H101       23.6961   21.8262    1.7725 H         1 UNK         0.0767 
    102 H102       24.2510   21.3858    3.3891 H         1 UNK         0.0767 
    103 H103       23.1975   22.7710    3.1683 H         1 UNK         0.0767 
    104 H104       26.1240   21.4696    1.5933 H         1 UNK         0.3013 
    105 H105       28.9889   27.4615    1.0104 H         1 UNK         0.3121 
    106 H106       31.3357   27.7624    2.6445 H         1 UNK         0.0774 
    107 H107       29.9703   26.4726    4.3189 H         1 UNK         0.0815 
    108 H108       28.5665   26.5998    3.2642 H         1 UNK         0.0815 
    109 H109       29.9940   25.7062    2.7406 H         1 UNK         0.0815 
    110 H110       28.1559   29.3229    2.5766 H         1 UNK         0.2987 
    111 H111       28.4904   30.8557    5.0026 H         1 UNK         0.0949 
    112 H112       26.5974   31.2844    2.6242 H         1 UNK         0.0806 
    113 H113       26.2378   30.3416    4.0704 H         1 UNK         0.0806 
    114 H114       26.4826   32.0763    4.1876 H         1 UNK         0.0806 
    115 H115       29.0161   31.5137    1.5181 H         1 UNK         0.3010 
    116 H116       29.8989   34.1990    1.7733 H         1 UNK         0.0829 
    117 H117       30.7999   33.8485   -0.5265 H         1 UNK         0.0813 
    118 H118       30.5679   32.1125   -0.3730 H         1 UNK         0.0813 
    119 H119       29.1761   33.1926   -0.3827 H         1 UNK         0.0813 
    120 H120       31.7690   31.1180    1.7339 H         1 UNK         0.3038 
    121 H121       34.3355   32.3276    2.1571 H         1 UNK         0.0769 
    122 H122       34.0576   30.0413    1.2200 H         1 UNK         0.0811 
    123 H123       33.3213   29.4890    2.7231 H         1 UNK         0.0811 
    124 H124       35.0129   29.9714    2.6935 H         1 UNK         0.0811 
    125 H125       31.7627   31.3357    4.3292 H         1 UNK         0.3204 
    126 H126       31.3429   31.4208    6.4763 H         1 UNK         0.0748 
    127 H127       32.3860   33.0860    7.9633 H         1 UNK         0.0771 
    128 H128       33.6966   33.3549    6.8245 H         1 UNK         0.0771 
    129 H129       32.0488   33.8241    6.4058 H         1 UNK         0.0771 
    130 H130       32.7139   29.2666    5.4762 H         1 UNK         0.2980 
    131 H131       34.9351   28.5749    7.2343 H         1 UNK         0.0545 
    132 H132       33.5165   25.9569    9.2547 H         1 UNK         0.3459 
    133 H133       34.9567   26.3384    8.3486 H         1 UNK         0.3459 
    134 H134       35.1232   27.9371    4.9087 H         1 UNK         0.0616 
    135 H135       35.1202   26.5126    5.9054 H         1 UNK         0.0616 
    136 H136       34.2426   27.2661    2.5114 H         1 UNK         0.0634 
    137 H137       34.9734   25.8424    3.2123 H         1 UNK         0.0634 
@<TRIPOS>BOND
     1    1    2 1    
     2    1   72 1    
     3    1   73 1    
     4    1   74 1    
     5    2    3 2    
     6    2    4 am   BACKBONE|DICT|INTERRES
     7    4    5 1    
     8    4   75 1    
     9    5    6 1    
    10    5   35 1    
    11    5   76 1    
    12    6    7 1    
    13    6   77 1    
    14    6   78 1    
    15    7    8 1    
    16    8    9 1    
    17    8   79 1    
    18    8   80 1    
    19    9   10 ar   
    20    9   14 ar   
    21   10   11 ar   
    22   10   81 1    
    23   11   12 ar   
    24   11   71 1    
    25   12   13 ar   
    26   12   82 1    
    27   13   14 ar   
    28   13   15 1    
    29   14   83 1    
    30   15   16 1    
    31   15   84 1    
    32   15   85 1    
    33   16   17 1    
    34   17   18 1    
    35   17   86 1    
    36   17   87 1    
    37   18   19 1    
    38   18   37 1    
    39   18   88 1    
    40   19   20 am   BACKBONE|DICT|INTERRES
    41   19   89 1    
    42   20   21 2    
    43   20   22 1    
    44   22   23 1    
    45   22   24 1    
    46   22   90 1    
    47   23   91 1    
    48   23   92 1    
    49   23   93 1    
    50   24   25 am   BACKBONE|DICT|INTERRES
    51   24   94 1    
    52   25   26 2    
    53   25   27 1    
    54   27   28 1    
    55   27   29 1    
    56   27   95 1    
    57   28   96 1    
    58   28   97 1    
    59   28   98 1    
    60   29   30 am   BACKBONE|DICT|INTERRES
    61   29   99 1    
    62   30   31 2    
    63   30   32 1    
    64   32   33 1    
    65   32   34 1    
    66   32  100 1    
    67   33  101 1    
    68   33  102 1    
    69   33  103 1    
    70   34   35 am   BACKBONE|DICT|INTERRES
    71   34  104 1    
    72   35   36 2    
    73   37   38 2    
    74   37   39 am   BACKBONE|DICT|INTERRES
    75   39   40 1    
    76   39  105 1    
    77   40   41 1    
    78   40   42 1    
    79   40  106 1    
    80   41  107 1    
    81   41  108 1    
    82   41  109 1    
    83   42   43 2    
    84   42   44 am   BACKBONE|DICT|INTERRES
    85   44   45 1    
    86   44  110 1    
    87   45   46 1    
    88   45   47 1    
    89   45  111 1    
    90   46  112 1    
    91   46  113 1    
    92   46  114 1    
    93   47   48 2    
    94   47   49 am   BACKBONE|DICT|INTERRES
    95   49   50 1    
    96   49  115 1    
    97   50   51 1    
    98   50   52 1    
    99   50  116 1    
   100   51  117 1    
   101   51  118 1    
   102   51  119 1    
   103   52   53 2    
   104   52   54 am   BACKBONE|DICT|INTERRES
   105   54   55 1    
   106   54  120 1    
   107   55   56 1    
   108   55   57 1    
   109   55  121 1    
   110   56  122 1    
   111   56  123 1    
   112   56  124 1    
   113   57   58 2    
   114   57   59 am   BACKBONE|DICT|INTERRES
   115   59   60 1    
   116   59  125 1    
   117   60   61 1    
   118   60   62 1    
   119   60  126 1    
   120   61  127 1    
   121   61  128 1    
   122   61  129 1    
   123   62   63 2    
   124   62   64 am   BACKBONE|DICT|INTERRES
   125   64   65 1    
   126   64  130 1    
   127   65   66 1    
   128   65   69 1    
   129   65  131 1    
   130   66   67 am   BACKBONE|DICT|INTERRES
   131   66   68 2    
   132   67  132 1    
   133   67  133 1    
   134   69   70 1    
   135   69  134 1    
   136   69  135 1    
   137   70   71 1    
   138   71  136 1    
   139   71  137 1    
@<TRIPOS>SUBSTRUCTURE
     1 UNK         1 GROUP             0       ****    0 ROOT    
