@<TRIPOS>MOLECULE
3R136
137   139    1
SMALL
USER_CHARGES


@<TRIPOS>ATOM
      1 CA         29.4224   22.1555   -3.4424 C.3       0 UNK        -0.1979 
      2 C          29.1665   22.1388   -1.9431 C.2       0 UNK         0.4864 
      3 O          28.1095   21.6738   -1.5124 O.2       0 UNK        -0.5359 
      4 N          30.1195   22.6587   -1.1528 N.am      1 UNK        -0.4318 
      5 CA         30.0818   22.7851    0.3102 C.3       1 UNK         0.0824 
      6 C6         30.3544   21.4335    1.0315 C.3       12 UNK        -0.0944 
      7 S7         30.4940   21.5390    2.8531 S.3       12 UNK        -0.2672 
      8 C8         31.9984   22.5505    3.0856 C.3       12 UNK         0.0333 
      9 C9         31.8168   23.7315    4.0420 C.ar      12 UNK        -0.0807 
     10 C10        32.9061   24.1399    4.8183 C.ar      12 UNK        -0.0894 
     11 C11        32.7953   25.2149    5.7048 C.ar      12 UNK        -0.0804 
     12 C12        31.5782   25.8953    5.8076 C.ar      12 UNK        -0.0824 
     13 C13        30.4750   25.4997    5.0440 C.ar      12 UNK        -0.0762 
     14 C14        30.6021   24.4240    4.1589 C.ar      12 UNK        -0.0782 
     15 C15        29.1335   26.1976    5.2286 C.3       12 UNK         0.0230 
     16 S16        28.9950   27.7063    4.2216 S.3       12 UNK        -0.2608 
     17 C17        28.0419   27.1174    2.7859 C.3       12 UNK        -0.0989 
     18 CA         28.0780   28.1101    1.5932 C.3       5 UNK         0.0716 
     19 N          27.8935   27.4097    0.3221 N.am      5 UNK        -0.4135 
     20 C          28.0189   27.9315   -0.9055 C.2       4 UNK         0.5031 
     21 O          28.2664   29.1172   -1.1294 O.2       4 UNK        -0.5229 
     22 CA         27.8941   26.9595   -2.0925 C.3       4 UNK         0.0329 
     23 CB         29.2930   26.5279   -2.5658 C.3       4 UNK        -0.2001 
     24 N          27.1252   25.7576   -1.7573 N.am      4 UNK        -0.4303 
     25 C          25.8347   25.5578   -2.0583 C.2       3 UNK         0.5044 
     26 O          25.1416   26.3700   -2.6720 O.2       3 UNK        -0.5152 
     27 CA         25.2034   24.2219   -1.6180 C.3       3 UNK         0.0319 
     28 CB         25.2131   23.2162   -2.7804 C.3       3 UNK        -0.2001 
     29 N          25.8648   23.6226   -0.4552 N.am      3 UNK        -0.4354 
     30 C          25.7254   24.0736    0.8013 C.2       2 UNK         0.4964 
     31 O          24.9679   24.9913    1.1153 O.2       2 UNK        -0.5047 
     32 CA         26.5964   23.4251    1.8956 C.3       2 UNK         0.0288 
     33 CB         25.8110   22.3265    2.6286 C.3       2 UNK        -0.2113 
     34 N          27.8685   22.8694    1.4222 N.am      2 UNK        -0.4145 
     35 C          28.8140   23.5424    0.7524 C.2       1 UNK         0.5006 
     36 O          28.7019   24.7242    0.4325 O.2       1 UNK        -0.5103 
     37 C          27.0992   29.2888    1.7826 C.2       5 UNK         0.5055 
     38 O          25.9587   29.2482    1.3140 O.2       5 UNK        -0.5220 
     39 N          27.5846   30.3077    2.4927 N.am      6 UNK        -0.4450 
     40 CA         26.9300   31.5612    2.8438 C.3       6 UNK         0.0367 
     41 CB         26.9117   32.5074    1.6255 C.3       6 UNK        -0.1929 
     42 C          27.7149   32.1447    4.0298 C.2       6 UNK         0.5070 
     43 O          28.5952   31.4644    4.5635 O.2       6 UNK        -0.5237 
     44 N          27.4306   33.3982    4.4082 N.am      7 UNK        -0.4739 
     45 CA         28.0668   34.1082    5.5305 C.3       7 UNK         0.0276 
     46 CB         27.4317   35.5014    5.6695 C.3       7 UNK        -0.1927 
     47 C          29.6044   34.2254    5.4520 C.2       7 UNK         0.5013 
     48 O          30.2531   34.3278    6.4937 O.2       7 UNK        -0.5193 
     49 N          30.1584   34.1896    4.2319 N.am      8 UNK        -0.4253 
     50 CA         31.6000   34.1655    3.9645 C.3       8 UNK         0.0242 
     51 CB         31.8402   34.6247    2.5162 C.3       8 UNK        -0.2000 
     52 C          32.2602   32.7906    4.2056 C.2       8 UNK         0.4948 
     53 O          33.4857   32.7453    4.3192 O.2       8 UNK        -0.5275 
     54 N          31.4476   31.7228    4.2759 N.am      9 UNK        -0.4246 
     55 CA         31.7773   30.2945    4.3723 C.3       9 UNK         0.0261 
     56 CB         32.6753   29.9893    5.5855 C.3       9 UNK        -0.1959 
     57 C          32.3716   29.7169    3.0738 C.2       9 UNK         0.5033 
     58 O          33.2445   30.3338    2.4609 O.2       9 UNK        -0.5390 
     59 N          31.9275   28.5085    2.6903 N.am      10 UNK        -0.4215 
     60 CA         32.4341   27.7813    1.5134 C.3       10 UNK         0.0240 
     61 CB         31.5788   26.5334    1.2439 C.3       10 UNK        -0.1982 
     62 C          33.9158   27.3834    1.6352 C.2       10 UNK         0.4970 
     63 O          34.6129   27.3204    0.6223 O.2       10 UNK        -0.4916 
     64 N          34.3657   27.1489    2.8725 N.am      11 UNK        -0.4279 
     65 CA         35.7711   26.9552    3.2468 C.3       11 UNK         0.1003 
     66 C          36.6454   28.2463    3.2066 C.2       11 UNK         0.5709 
     67 N          36.0958   29.4341    2.9756 N.am      11 UNK        -0.7358 
     68 O          37.8602   28.1644    3.3729 O.2       11 UNK        -0.4999 
     69 C69        35.8915   26.2038    4.6000 C.3       12 UNK        -0.0954 
     70 S70        34.9465   26.9840    5.9572 S.3       12 UNK        -0.2268 
     71 C71        33.9662   25.5930    6.6045 C.3       12 UNK         0.0203 
     72 H72        28.6894   22.7895   -3.9403 H         1 UNK         0.0888 
     73 H73        30.4163   22.5322   -3.6831 H         1 UNK         0.0888 
     74 H74        29.3345   21.1482   -3.8484 H         1 UNK         0.0888 
     75 H75        30.9461   23.0436   -1.5885 H         1 UNK         0.3017 
     76 H76        30.9021   23.4610    0.5488 H         1 UNK         0.0873 
     77 H77        31.2833   21.0022    0.6548 H         1 UNK         0.0745 
     78 H78        29.5781   20.7061    0.7880 H         1 UNK         0.0745 
     79 H79        32.3703   22.9276    2.1340 H         1 UNK         0.0705 
     80 H80        32.7768   21.8861    3.4640 H         1 UNK         0.0705 
     81 H81        33.8423   23.6036    4.7461 H         1 UNK         0.1334 
     82 H82        31.4806   26.7154    6.5061 H         1 UNK         0.1417 
     83 H83        29.7461   24.1219    3.5734 H         1 UNK         0.1562 
     84 H84        29.0114   26.4723    6.2775 H         1 UNK         0.0748 
     85 H85        28.3103   25.5176    5.0032 H         1 UNK         0.0748 
     86 H86        27.0168   26.8907    3.0868 H         1 UNK         0.0940 
     87 H87        28.4874   26.1663    2.4984 H         1 UNK         0.0940 
     88 H88        29.0809   28.5383    1.5337 H         1 UNK         0.0703 
     89 H89        27.7866   26.4043    0.3874 H         1 UNK         0.3081 
     90 H90        27.4099   27.4974   -2.9103 H         1 UNK         0.0719 
     91 H91        29.8393   25.9974   -1.7845 H         1 UNK         0.0809 
     92 H92        29.2328   25.8739   -3.4358 H         1 UNK         0.0809 
     93 H93        29.8925   27.3932   -2.8520 H         1 UNK         0.0809 
     94 H94        27.6089   25.0609   -1.2021 H         1 UNK         0.2990 
     95 H95        24.1623   24.4221   -1.3556 H         1 UNK         0.0690 
     96 H96        24.7238   22.2827   -2.5021 H         1 UNK         0.0788 
     97 H97        26.2275   22.9798   -3.1026 H         1 UNK         0.0788 
     98 H98        24.6815   23.6150   -3.6456 H         1 UNK         0.0788 
     99 H99        26.5163   22.8659   -0.6379 H         1 UNK         0.2993 
    100 H100       26.8364   24.2087    2.6168 H         1 UNK         0.0949 
    101 H101       26.3741   21.9334    3.4755 H         1 UNK         0.0767 
    102 H102       24.8691   22.7137    3.0202 H         1 UNK         0.0767 
    103 H103       25.5716   21.4930    1.9668 H         1 UNK         0.0767 
    104 H104       28.0402   21.8954    1.6276 H         1 UNK         0.3013 
    105 H105       28.4757   30.1963    2.9629 H         1 UNK         0.3121 
    106 H106       25.9103   31.3544    3.1745 H         1 UNK         0.0774 
    107 H107       26.3723   33.4297    1.8422 H         1 UNK         0.0815 
    108 H108       27.9203   32.7796    1.3119 H         1 UNK         0.0815 
    109 H109       26.4143   32.0458    0.7723 H         1 UNK         0.0815 
    110 H110       26.7015   33.8970    3.9180 H         1 UNK         0.2987 
    111 H111       27.8433   33.5407    6.4367 H         1 UNK         0.0949 
    112 H112       27.5883   36.1073    4.7762 H         1 UNK         0.0806 
    113 H113       26.3583   35.4339    5.8476 H         1 UNK         0.0806 
    114 H114       27.8625   36.0455    6.5115 H         1 UNK         0.0806 
    115 H115       29.5430   34.1216    3.4347 H         1 UNK         0.3010 
    116 H116       32.0862   34.8799    4.6326 H         1 UNK         0.0829 
    117 H117       31.4452   35.6263    2.3451 H         1 UNK         0.0813 
    118 H118       32.9069   34.6562    2.2890 H         1 UNK         0.0813 
    119 H119       31.3751   33.9501    1.7961 H         1 UNK         0.0813 
    120 H120       30.4483   31.9007    4.2371 H         1 UNK         0.3038 
    121 H121       30.8210   29.8080    4.5523 H         1 UNK         0.0769 
    122 H122       32.7233   28.9160    5.7660 H         1 UNK         0.0811 
    123 H123       32.2890   30.4517    6.4937 H         1 UNK         0.0811 
    124 H124       33.6974   30.3395    5.4363 H         1 UNK         0.0811 
    125 H125       31.2152   28.0471    3.2422 H         1 UNK         0.3204 
    126 H126       32.3453   28.4454    0.6509 H         1 UNK         0.0748 
    127 H127       31.9424   25.9925    0.3692 H         1 UNK         0.0771 
    128 H128       31.6033   25.8424    2.0836 H         1 UNK         0.0771 
    129 H129       30.5414   26.7881    1.0449 H         1 UNK         0.0771 
    130 H130       33.7213   27.2150    3.6460 H         1 UNK         0.2980 
    131 H131       36.2095   26.3013    2.4907 H         1 UNK         0.0545 
    132 H132       36.6898   30.2470    2.9524 H         1 UNK         0.3459 
    133 H133       35.1010   29.5414    2.8147 H         1 UNK         0.3459 
    134 H134       35.5499   25.1782    4.4665 H         1 UNK         0.0616 
    135 H135       36.9344   26.1172    4.9098 H         1 UNK         0.0616 
    136 H136       34.6201   24.7346    6.7666 H         1 UNK         0.0634 
    137 H137       33.5873   25.8694    7.5895 H         1 UNK         0.0634 
@<TRIPOS>BOND
     1    1    2 1    
     2    1   72 1    
     3    1   73 1    
     4    1   74 1    
     5    2    3 2    
     6    2    4 am   BACKBONE|DICT|INTERRES
     7    4    5 1    
     8    4   75 1    
     9    5    6 1    
    10    5   35 1    
    11    5   76 1    
    12    6    7 1    
    13    6   77 1    
    14    6   78 1    
    15    7    8 1    
    16    8    9 1    
    17    8   79 1    
    18    8   80 1    
    19    9   10 ar   
    20    9   14 ar   
    21   10   11 ar   
    22   10   81 1    
    23   11   12 ar   
    24   11   71 1    
    25   12   13 ar   
    26   12   82 1    
    27   13   14 ar   
    28   13   15 1    
    29   14   83 1    
    30   15   16 1    
    31   15   84 1    
    32   15   85 1    
    33   16   17 1    
    34   17   18 1    
    35   17   86 1    
    36   17   87 1    
    37   18   19 1    
    38   18   37 1    
    39   18   88 1    
    40   19   20 am   BACKBONE|DICT|INTERRES
    41   19   89 1    
    42   20   21 2    
    43   20   22 1    
    44   22   23 1    
    45   22   24 1    
    46   22   90 1    
    47   23   91 1    
    48   23   92 1    
    49   23   93 1    
    50   24   25 am   BACKBONE|DICT|INTERRES
    51   24   94 1    
    52   25   26 2    
    53   25   27 1    
    54   27   28 1    
    55   27   29 1    
    56   27   95 1    
    57   28   96 1    
    58   28   97 1    
    59   28   98 1    
    60   29   30 am   BACKBONE|DICT|INTERRES
    61   29   99 1    
    62   30   31 2    
    63   30   32 1    
    64   32   33 1    
    65   32   34 1    
    66   32  100 1    
    67   33  101 1    
    68   33  102 1    
    69   33  103 1    
    70   34   35 am   BACKBONE|DICT|INTERRES
    71   34  104 1    
    72   35   36 2    
    73   37   38 2    
    74   37   39 am   BACKBONE|DICT|INTERRES
    75   39   40 1    
    76   39  105 1    
    77   40   41 1    
    78   40   42 1    
    79   40  106 1    
    80   41  107 1    
    81   41  108 1    
    82   41  109 1    
    83   42   43 2    
    84   42   44 am   BACKBONE|DICT|INTERRES
    85   44   45 1    
    86   44  110 1    
    87   45   46 1    
    88   45   47 1    
    89   45  111 1    
    90   46  112 1    
    91   46  113 1    
    92   46  114 1    
    93   47   48 2    
    94   47   49 am   BACKBONE|DICT|INTERRES
    95   49   50 1    
    96   49  115 1    
    97   50   51 1    
    98   50   52 1    
    99   50  116 1    
   100   51  117 1    
   101   51  118 1    
   102   51  119 1    
   103   52   53 2    
   104   52   54 am   BACKBONE|DICT|INTERRES
   105   54   55 1    
   106   54  120 1    
   107   55   56 1    
   108   55   57 1    
   109   55  121 1    
   110   56  122 1    
   111   56  123 1    
   112   56  124 1    
   113   57   58 2    
   114   57   59 am   BACKBONE|DICT|INTERRES
   115   59   60 1    
   116   59  125 1    
   117   60   61 1    
   118   60   62 1    
   119   60  126 1    
   120   61  127 1    
   121   61  128 1    
   122   61  129 1    
   123   62   63 2    
   124   62   64 am   BACKBONE|DICT|INTERRES
   125   64   65 1    
   126   64  130 1    
   127   65   66 1    
   128   65   69 1    
   129   65  131 1    
   130   66   67 am   BACKBONE|DICT|INTERRES
   131   66   68 2    
   132   67  132 1    
   133   67  133 1    
   134   69   70 1    
   135   69  134 1    
   136   69  135 1    
   137   70   71 1    
   138   71  136 1    
   139   71  137 1    
@<TRIPOS>SUBSTRUCTURE
     1 UNK         1 GROUP             0       ****    0 ROOT    
