@<TRIPOS>MOLECULE
3R136
137   139    1
SMALL
USER_CHARGES


@<TRIPOS>ATOM
      1 CA         31.6707   25.1153    4.3989 C.3       0 UNK        -0.1979 
      2 C          30.2947   24.5052    4.2104 C.2       0 UNK         0.4864 
      3 O          29.4648   24.5528    5.1197 O.2       0 UNK        -0.5359 
      4 N          30.0414   23.9330    3.0279 N.am      1 UNK        -0.4318 
      5 CA         28.8145   23.2156    2.6564 C.3       1 UNK         0.0824 
      6 C6         29.0639   22.1899    1.5179 C.3       12 UNK        -0.0944 
      7 S7         30.4288   21.0277    1.8745 S.3       12 UNK        -0.2672 
      8 C8         31.6277   21.4208    0.5577 C.3       12 UNK         0.0333 
      9 C9         32.3751   22.7212    0.8230 C.ar      12 UNK        -0.0807 
     10 C10        33.5511   22.7166    1.5808 C.ar      12 UNK        -0.0894 
     11 C11        34.2592   23.9028    1.8066 C.ar      12 UNK        -0.0804 
     12 C12        33.7719   25.1018    1.2786 C.ar      12 UNK        -0.0824 
     13 C13        32.5775   25.1242    0.5536 C.ar      12 UNK        -0.0762 
     14 C14        31.9000   23.9283    0.3025 C.ar      12 UNK        -0.0782 
     15 C15        31.9857   26.4414    0.0829 C.3       12 UNK         0.0230 
     16 S16        30.6584   26.9407    1.2200 S.3       12 UNK        -0.2608 
     17 C17        30.1054   28.5355    0.5336 C.3       12 UNK        -0.0989 
     18 CA         29.5562   28.4702   -0.9147 C.3       5 UNK         0.0716 
     19 N          28.5699   27.4013   -1.0613 N.am      5 UNK        -0.4135 
     20 C          28.3795   26.6714   -2.1668 C.2       4 UNK         0.5031 
     21 O          29.0418   26.8035   -3.1973 O.2       4 UNK        -0.5229 
     22 CA         27.2821   25.5903   -2.1182 C.3       4 UNK         0.0329 
     23 CB         27.9133   24.2143   -1.8602 C.3       4 UNK        -0.2001 
     24 N          26.2633   25.8549   -1.0979 N.am      4 UNK        -0.4303 
     25 C          25.3463   26.8295   -1.1968 C.2       3 UNK         0.5044 
     26 O          25.1842   27.5038   -2.2147 O.2       3 UNK        -0.5152 
     27 CA         24.4576   27.1204    0.0284 C.3       3 UNK         0.0319 
     28 CB         23.0162   26.6496   -0.2286 C.3       3 UNK        -0.2001 
     29 N          24.9222   26.5433    1.2932 N.am      3 UNK        -0.4354 
     30 C          26.0712   26.8249    1.9240 C.2       2 UNK         0.4964 
     31 O          26.9278   27.5887    1.4795 O.2       2 UNK        -0.5047 
     32 CA         26.3117   26.1221    3.2750 C.3       2 UNK         0.0288 
     33 CB         25.0509   25.4533    3.8681 C.3       2 UNK        -0.2113 
     34 N          27.4085   25.1499    3.2378 N.am      2 UNK        -0.4145 
     35 C          27.6314   24.1698    2.3491 C.2       1 UNK         0.5006 
     36 O          26.9446   23.9961    1.3387 O.2       1 UNK        -0.5103 
     37 C          28.9282   29.8219   -1.3117 C.2       5 UNK         0.5055 
     38 O          27.7020   29.9412   -1.3811 O.2       5 UNK        -0.5220 
     39 N          29.7792   30.8373   -1.5255 N.am      6 UNK        -0.4450 
     40 CA         29.3649   32.2240   -1.7862 C.3       6 UNK         0.0367 
     41 CB         30.5872   33.0533   -2.2122 C.3       6 UNK        -0.1929 
     42 C          28.6585   32.8814   -0.5835 C.2       6 UNK         0.5070 
     43 O          27.7664   33.7079   -0.7761 O.2       6 UNK        -0.5237 
     44 N          29.0530   32.4783    0.6277 N.am      7 UNK        -0.4739 
     45 CA         28.4004   32.7720    1.8973 C.3       7 UNK         0.0276 
     46 CB         28.9950   34.0481    2.5164 C.3       7 UNK        -0.1927 
     47 C          28.6389   31.5545    2.7949 C.2       7 UNK         0.5013 
     48 O          29.7053   30.9408    2.6943 O.2       7 UNK        -0.5193 
     49 N          27.6680   31.2233    3.6551 N.am      8 UNK        -0.4253 
     50 CA         27.6658   30.0340    4.5183 C.3       8 UNK         0.0242 
     51 CB         26.2133   29.7207    4.9271 C.3       8 UNK        -0.2000 
     52 C          28.6163   30.1453    5.7319 C.2       8 UNK         0.4948 
     53 O          28.1941   29.9433    6.8725 O.2       8 UNK        -0.5275 
     54 N          29.8834   30.4694    5.4617 N.am      9 UNK        -0.4246 
     55 CA         30.9915   30.4767    6.4139 C.3       9 UNK         0.0261 
     56 CB         32.0168   31.5251    5.9474 C.3       9 UNK        -0.1959 
     57 C          31.6381   29.0835    6.4949 C.2       9 UNK         0.5033 
     58 O          31.3494   28.2143    5.6672 O.2       9 UNK        -0.5390 
     59 N          32.5418   28.8999    7.4670 N.am      10 UNK        -0.4215 
     60 CA         33.3631   27.6963    7.6438 C.3       10 UNK         0.0240 
     61 CB         33.9223   27.6781    9.0790 C.3       10 UNK        -0.1982 
     62 C          34.4714   27.6073    6.5731 C.2       10 UNK         0.4970 
     63 O          35.6524   27.7658    6.8883 O.2       10 UNK        -0.4916 
     64 N          34.0441   27.3924    5.3244 N.am      11 UNK        -0.4279 
     65 CA         34.8360   27.4359    4.0866 C.3       11 UNK         0.1003 
     66 C          35.3452   28.8718    3.7475 C.2       11 UNK         0.5709 
     67 N          36.2321   29.0196    2.7715 N.am      11 UNK        -0.7358 
     68 O          34.9119   29.8684    4.3236 O.2       11 UNK        -0.4999 
     69 C69        35.9501   26.3457    4.0128 C.3       12 UNK        -0.0954 
     70 S70        35.3492   24.6373    4.2650 S.3       12 UNK        -0.2268 
     71 C71        35.5510   23.8838    2.6144 C.3       12 UNK         0.0203 
     72 H72        31.7012   26.1124    3.9621 H         1 UNK         0.0888 
     73 H73        31.9179   25.1924    5.4572 H         1 UNK         0.0888 
     74 H74        32.4307   24.5028    3.9180 H         1 UNK         0.0888 
     75 H75        30.7621   23.9456    2.3185 H         1 UNK         0.3017 
     76 H76        28.5023   22.6392    3.5300 H         1 UNK         0.0873 
     77 H77        29.2573   22.6980    0.5754 H         1 UNK         0.0745 
     78 H78        28.1659   21.5920    1.3511 H         1 UNK         0.0745 
     79 H79        32.3424   20.5996    0.4841 H         1 UNK         0.0705 
     80 H80        31.1178   21.4597   -0.4062 H         1 UNK         0.0705 
     81 H81        33.9188   21.7845    1.9882 H         1 UNK         0.1334 
     82 H82        34.3134   26.0202    1.4481 H         1 UNK         0.1417 
     83 H83        30.9889   23.9476   -0.2793 H         1 UNK         0.1562 
     84 H84        31.5898   26.3270   -0.9271 H         1 UNK         0.0748 
     85 H85        32.7482   27.2208    0.0413 H         1 UNK         0.0748 
     86 H86        30.9287   29.2477    0.6125 H         1 UNK         0.0940 
     87 H87        29.3258   28.8958    1.2067 H         1 UNK         0.0940 
     88 H88        30.3908   28.2844   -1.5933 H         1 UNK         0.0703 
     89 H89        27.9484   27.2785   -0.2688 H         1 UNK         0.3081 
     90 H90        26.7936   25.5654   -3.0946 H         1 UNK         0.0719 
     91 H91        28.4755   24.2109   -0.9276 H         1 UNK         0.0809 
     92 H92        27.1588   23.4295   -1.8037 H         1 UNK         0.0809 
     93 H93        28.6058   23.9460   -2.6591 H         1 UNK         0.0809 
     94 H94        26.3306   25.3267   -0.2339 H         1 UNK         0.2990 
     95 H95        24.4449   28.2049    0.1550 H         1 UNK         0.0690 
     96 H96        22.3509   26.9413    0.5844 H         1 UNK         0.0788 
     97 H97        22.9604   25.5658   -0.3384 H         1 UNK         0.0788 
     98 H98        22.6167   27.0905   -1.1431 H         1 UNK         0.0788 
     99 H99        24.3053   25.8734    1.7295 H         1 UNK         0.2993 
    100 H100       26.6250   26.9058    3.9652 H         1 UNK         0.0949 
    101 H101       24.7134   24.6057    3.2700 H         1 UNK         0.0767 
    102 H102       25.2470   25.0823    4.8744 H         1 UNK         0.0767 
    103 H103       24.2247   26.1614    3.9497 H         1 UNK         0.0767 
    104 H104       28.0588   25.1893    4.0193 H         1 UNK         0.3013 
    105 H105       30.7731   30.6667   -1.4656 H         1 UNK         0.3121 
    106 H106       28.6548   32.2115   -2.6161 H         1 UNK         0.0774 
    107 H107       31.3451   33.0903   -1.4286 H         1 UNK         0.0815 
    108 H108       30.3002   34.0820   -2.4352 H         1 UNK         0.0815 
    109 H109       31.0505   32.6467   -3.1113 H         1 UNK         0.0815 
    110 H110       29.7774   31.7749    0.7015 H         1 UNK         0.2987 
    111 H111       27.3267   32.8976    1.7393 H         1 UNK         0.0949 
    112 H112       30.0662   33.9467    2.6964 H         1 UNK         0.0806 
    113 H113       28.8453   34.9102    1.8662 H         1 UNK         0.0806 
    114 H114       28.5222   34.2760    3.4724 H         1 UNK         0.0806 
    115 H115       26.8479   31.8104    3.7073 H         1 UNK         0.3010 
    116 H116       28.0253   29.1893    3.9251 H         1 UNK         0.0829 
    117 H117       26.1619   28.8191    5.5390 H         1 UNK         0.0813 
    118 H118       25.7745   30.5327    5.5082 H         1 UNK         0.0813 
    119 H119       25.5830   29.5517    4.0537 H         1 UNK         0.0813 
    120 H120       30.1267   30.5775    4.4796 H         1 UNK         0.3038 
    121 H121       30.6232   30.7507    7.4048 H         1 UNK         0.0769 
    122 H122       32.4376   31.2697    4.9734 H         1 UNK         0.0811 
    123 H123       32.8486   31.6103    6.6475 H         1 UNK         0.0811 
    124 H124       31.5634   32.5132    5.8656 H         1 UNK         0.0811 
    125 H125       32.7454   29.6719    8.0857 H         1 UNK         0.3204 
    126 H126       32.7242   26.8179    7.5271 H         1 UNK         0.0748 
    127 H127       34.5268   26.7863    9.2503 H         1 UNK         0.0771 
    128 H128       34.5544   28.5442    9.2799 H         1 UNK         0.0771 
    129 H129       33.1200   27.6697    9.8172 H         1 UNK         0.0771 
    130 H130       33.0368   27.4023    5.1941 H         1 UNK         0.2980 
    131 H131       34.1075   27.2214    3.3068 H         1 UNK         0.0545 
    132 H132       36.5477   29.9485    2.5403 H         1 UNK         0.3459 
    133 H133       36.5975   28.2280    2.2673 H         1 UNK         0.3459 
    134 H134       36.7182   26.5411    4.7623 H         1 UNK         0.0616 
    135 H135       36.4641   26.3893    3.0530 H         1 UNK         0.0616 
    136 H136       36.3463   24.3770    2.0549 H         1 UNK         0.0634 
    137 H137       35.8860   22.8553    2.7560 H         1 UNK         0.0634 
@<TRIPOS>BOND
     1    1    2 1    
     2    1   72 1    
     3    1   73 1    
     4    1   74 1    
     5    2    3 2    
     6    2    4 am   BACKBONE|DICT|INTERRES
     7    4    5 1    
     8    4   75 1    
     9    5    6 1    
    10    5   35 1    
    11    5   76 1    
    12    6    7 1    
    13    6   77 1    
    14    6   78 1    
    15    7    8 1    
    16    8    9 1    
    17    8   79 1    
    18    8   80 1    
    19    9   10 ar   
    20    9   14 ar   
    21   10   11 ar   
    22   10   81 1    
    23   11   12 ar   
    24   11   71 1    
    25   12   13 ar   
    26   12   82 1    
    27   13   14 ar   
    28   13   15 1    
    29   14   83 1    
    30   15   16 1    
    31   15   84 1    
    32   15   85 1    
    33   16   17 1    
    34   17   18 1    
    35   17   86 1    
    36   17   87 1    
    37   18   19 1    
    38   18   37 1    
    39   18   88 1    
    40   19   20 am   BACKBONE|DICT|INTERRES
    41   19   89 1    
    42   20   21 2    
    43   20   22 1    
    44   22   23 1    
    45   22   24 1    
    46   22   90 1    
    47   23   91 1    
    48   23   92 1    
    49   23   93 1    
    50   24   25 am   BACKBONE|DICT|INTERRES
    51   24   94 1    
    52   25   26 2    
    53   25   27 1    
    54   27   28 1    
    55   27   29 1    
    56   27   95 1    
    57   28   96 1    
    58   28   97 1    
    59   28   98 1    
    60   29   30 am   BACKBONE|DICT|INTERRES
    61   29   99 1    
    62   30   31 2    
    63   30   32 1    
    64   32   33 1    
    65   32   34 1    
    66   32  100 1    
    67   33  101 1    
    68   33  102 1    
    69   33  103 1    
    70   34   35 am   BACKBONE|DICT|INTERRES
    71   34  104 1    
    72   35   36 2    
    73   37   38 2    
    74   37   39 am   BACKBONE|DICT|INTERRES
    75   39   40 1    
    76   39  105 1    
    77   40   41 1    
    78   40   42 1    
    79   40  106 1    
    80   41  107 1    
    81   41  108 1    
    82   41  109 1    
    83   42   43 2    
    84   42   44 am   BACKBONE|DICT|INTERRES
    85   44   45 1    
    86   44  110 1    
    87   45   46 1    
    88   45   47 1    
    89   45  111 1    
    90   46  112 1    
    91   46  113 1    
    92   46  114 1    
    93   47   48 2    
    94   47   49 am   BACKBONE|DICT|INTERRES
    95   49   50 1    
    96   49  115 1    
    97   50   51 1    
    98   50   52 1    
    99   50  116 1    
   100   51  117 1    
   101   51  118 1    
   102   51  119 1    
   103   52   53 2    
   104   52   54 am   BACKBONE|DICT|INTERRES
   105   54   55 1    
   106   54  120 1    
   107   55   56 1    
   108   55   57 1    
   109   55  121 1    
   110   56  122 1    
   111   56  123 1    
   112   56  124 1    
   113   57   58 2    
   114   57   59 am   BACKBONE|DICT|INTERRES
   115   59   60 1    
   116   59  125 1    
   117   60   61 1    
   118   60   62 1    
   119   60  126 1    
   120   61  127 1    
   121   61  128 1    
   122   61  129 1    
   123   62   63 2    
   124   62   64 am   BACKBONE|DICT|INTERRES
   125   64   65 1    
   126   64  130 1    
   127   65   66 1    
   128   65   69 1    
   129   65  131 1    
   130   66   67 am   BACKBONE|DICT|INTERRES
   131   66   68 2    
   132   67  132 1    
   133   67  133 1    
   134   69   70 1    
   135   69  134 1    
   136   69  135 1    
   137   70   71 1    
   138   71  136 1    
   139   71  137 1    
@<TRIPOS>SUBSTRUCTURE
     1 UNK         1 GROUP             0       ****    0 ROOT    
