@<TRIPOS>MOLECULE
3R136
137   139    1
SMALL
USER_CHARGES


@<TRIPOS>ATOM
      1 CA         30.8047   26.9033   -3.7816 C.3       0 UNK        -0.1979 
      2 C          30.8705   25.3905   -3.9809 C.2       0 UNK         0.4864 
      3 O          31.2501   24.9408   -5.0613 O.2       0 UNK        -0.5359 
      4 N          30.5303   24.5694   -2.9784 N.am      1 UNK        -0.4318 
      5 CA         29.9866   24.9596   -1.6732 C.3       1 UNK         0.0824 
      6 C6         30.2200   23.8758   -0.5914 C.3       12 UNK        -0.0944 
      7 S7         31.9798   23.4585   -0.3893 S.3       12 UNK        -0.2672 
      8 C8         31.8887   22.2338    0.9576 C.3       12 UNK         0.0333 
      9 C9         31.7313   22.8730    2.3327 C.ar      12 UNK        -0.0807 
     10 C10        32.6415   23.8458    2.7588 C.ar      12 UNK        -0.0894 
     11 C11        32.5460   24.3968    4.0375 C.ar      12 UNK        -0.0804 
     12 C12        31.5407   23.9592    4.9022 C.ar      12 UNK        -0.0824 
     13 C13        30.6239   22.9848    4.4948 C.ar      12 UNK        -0.0762 
     14 C14        30.7185   22.4512    3.2039 C.ar      12 UNK        -0.0782 
     15 C15        29.5755   22.4694    5.4762 C.3       12 UNK         0.0230 
     16 S16        27.9296   23.2173    5.2390 S.3       12 UNK        -0.2608 
     17 C17        28.2636   24.9892    5.5185 C.3       12 UNK        -0.0989 
     18 CA         28.0631   25.7816    4.1989 C.3       5 UNK         0.0716 
     19 N          26.6569   26.0129    3.8451 N.am      5 UNK        -0.4135 
     20 C          25.7506   26.7166    4.5452 C.2       4 UNK         0.5031 
     21 O          25.9691   27.1987    5.6572 O.2       4 UNK        -0.5229 
     22 CA         24.3654   26.9645    3.9086 C.3       4 UNK         0.0329 
     23 CB         24.1238   28.4726    3.7178 C.3       4 UNK        -0.2001 
     24 N          24.1749   26.3016    2.6185 N.am      4 UNK        -0.4303 
     25 C          23.9354   24.9960    2.4380 C.2       3 UNK         0.5044 
     26 O          23.7421   24.2011    3.3577 O.2       3 UNK        -0.5152 
     27 CA         23.9483   24.4848    0.9828 C.3       3 UNK         0.0319 
     28 CB         22.5120   24.3061    0.4647 C.3       3 UNK        -0.2001 
     29 N          24.6975   25.3343    0.0439 N.am      3 UNK        -0.4354 
     30 C          26.0041   25.6198    0.1353 C.2       2 UNK         0.4964 
     31 O          26.7278   25.2341    1.0576 O.2       2 UNK        -0.5047 
     32 CA         26.5799   26.5582   -0.9359 C.3       2 UNK         0.0288 
     33 CB         26.4067   28.0236   -0.5043 C.3       2 UNK        -0.2113 
     34 N          28.0028   26.2854   -1.1286 N.am      2 UNK        -0.4145 
     35 C          28.4784   25.2350   -1.8044 C.2       1 UNK         0.5006 
     36 O          27.7753   24.4779   -2.4800 O.2       1 UNK        -0.5103 
     37 C          28.8433   27.1058    4.1251 C.2       5 UNK         0.5055 
     38 O          29.3414   27.6165    5.1314 O.2       5 UNK        -0.5220 
     39 N          28.9053   27.6406    2.9032 N.am      6 UNK        -0.4450 
     40 CA         29.6578   28.8281    2.5347 C.3       6 UNK         0.0367 
     41 CB         28.7155   30.0442    2.5046 C.3       6 UNK        -0.1929 
     42 C          30.2836   28.5845    1.1596 C.2       6 UNK         0.5070 
     43 O          29.7770   27.7621    0.3916 O.2       6 UNK        -0.5237 
     44 N          31.3526   29.3230    0.8684 N.am      7 UNK        -0.4739 
     45 CA         32.0521   29.3260   -0.4117 C.3       7 UNK         0.0276 
     46 CB         33.2080   28.3039   -0.3761 C.3       7 UNK        -0.1927 
     47 C          32.4691   30.7747   -0.6948 C.2       7 UNK         0.5013 
     48 O          31.5947   31.6057   -0.9442 O.2       7 UNK        -0.5193 
     49 N          33.7731   31.0752   -0.6077 N.am      8 UNK        -0.4253 
     50 CA         34.3178   32.4388   -0.6757 C.3       8 UNK         0.0242 
     51 CB         35.8441   32.3655   -0.8465 C.3       8 UNK        -0.2000 
     52 C          33.9528   33.3003    0.5515 C.2       8 UNK         0.4948 
     53 O          33.9551   34.5281    0.4557 O.2       8 UNK        -0.5275 
     54 N          33.6370   32.6393    1.6690 N.am      9 UNK        -0.4246 
     55 CA         33.1112   33.1946    2.9087 C.3       9 UNK         0.0261 
     56 CB         34.2789   33.5589    3.8440 C.3       9 UNK        -0.1959 
     57 C          32.1982   32.1299    3.5333 C.2       9 UNK         0.5033 
     58 O          32.1560   30.9965    3.0395 O.2       9 UNK        -0.5390 
     59 N          31.5012   32.4912    4.6180 N.am      10 UNK        -0.4215 
     60 CA         30.6718   31.5914    5.4276 C.3       10 UNK         0.0240 
     61 CB         29.6817   32.4286    6.2580 C.3       10 UNK        -0.1982 
     62 C          31.5443   30.6669    6.2982 C.2       10 UNK         0.4970 
     63 O          31.6412   30.8651    7.5106 O.2       10 UNK        -0.4916 
     64 N          32.2126   29.7163    5.6392 N.am      11 UNK        -0.4279 
     65 CA         33.1882   28.7886    6.2212 C.3       11 UNK         0.1003 
     66 C          32.6215   27.7592    7.2422 C.2       11 UNK         0.5709 
     67 N          31.3373   27.4247    7.2151 N.am      11 UNK        -0.7358 
     68 O          33.3664   27.2638    8.0845 O.2       11 UNK        -0.4999 
     69 C69        34.0420   28.1202    5.1120 C.3       12 UNK        -0.0954 
     70 S70        33.0611   27.1056    3.9517 S.3       12 UNK        -0.2268 
     71 C71        33.5461   25.4418    4.4985 C.3       12 UNK         0.0203 
     72 H72        31.0844   27.4215   -4.6987 H         1 UNK         0.0888 
     73 H73        29.7989   27.2261   -3.5155 H         1 UNK         0.0888 
     74 H74        31.4962   27.2184   -3.0009 H         1 UNK         0.0888 
     75 H75        30.5746   23.5734   -3.1364 H         1 UNK         0.3017 
     76 H76        30.4875   25.8692   -1.3375 H         1 UNK         0.0873 
     77 H77        29.8382   24.2159    0.3743 H         1 UNK         0.0745 
     78 H78        29.6766   22.9601   -0.8343 H         1 UNK         0.0745 
     79 H79        31.0790   21.5316    0.7534 H         1 UNK         0.0705 
     80 H80        32.8090   21.6482    0.9547 H         1 UNK         0.0705 
     81 H81        33.4311   24.1713    2.0951 H         1 UNK         0.1334 
     82 H82        31.4842   24.3708    5.9008 H         1 UNK         0.1417 
     83 H83        30.0193   21.6875    2.8910 H         1 UNK         0.1562 
     84 H84        29.8983   22.6426    6.5041 H         1 UNK         0.0748 
     85 H85        29.4840   21.3874    5.3713 H         1 UNK         0.0748 
     86 H86        29.2756   25.1086    5.9030 H         1 UNK         0.0940 
     87 H87        27.6152   25.3548    6.3145 H         1 UNK         0.0940 
     88 H88        28.4775   25.1738    3.3915 H         1 UNK         0.0703 
     89 H89        26.3981   25.6709    2.9248 H         1 UNK         0.3081 
     90 H90        23.6171   26.5833    4.6066 H         1 UNK         0.0719 
     91 H91        24.8551   28.9162    3.0405 H         1 UNK         0.0809 
     92 H92        23.1294   28.6688    3.3162 H         1 UNK         0.0809 
     93 H93        24.1959   29.0052    4.6672 H         1 UNK         0.0809 
     94 H94        24.3039   26.8719    1.7960 H         1 UNK         0.2990 
     95 H95        24.4321   23.5058    0.9933 H         1 UNK         0.0690 
     96 H96        22.5000   23.8497   -0.5253 H         1 UNK         0.0788 
     97 H97        21.9831   25.2581    0.4039 H         1 UNK         0.0788 
     98 H98        21.9364   23.6554    1.1249 H         1 UNK         0.0788 
     99 H99        24.1726   25.7108   -0.7333 H         1 UNK         0.2993 
    100 H100       26.0541   26.3972   -1.8799 H         1 UNK         0.0949 
    101 H101       25.3519   28.2867   -0.4166 H         1 UNK         0.0767 
    102 H102       26.8734   28.2157    0.4622 H         1 UNK         0.0767 
    103 H103       26.8508   28.7055   -1.2299 H         1 UNK         0.0767 
    104 H104       28.6507   26.8427   -0.5696 H         1 UNK         0.3013 
    105 H105       28.5313   27.1262    2.1155 H         1 UNK         0.3121 
    106 H106       30.4599   28.9918    3.2560 H         1 UNK         0.0774 
    107 H107       27.9510   29.9459    1.7338 H         1 UNK         0.0815 
    108 H108       29.2700   30.9604    2.2976 H         1 UNK         0.0815 
    109 H109       28.2076   30.1780    3.4596 H         1 UNK         0.0815 
    110 H110       31.6768   29.9931    1.5648 H         1 UNK         0.2987 
    111 H111       31.3629   29.0431   -1.2105 H         1 UNK         0.0949 
    112 H112       33.8944   28.4868    0.4516 H         1 UNK         0.0806 
    113 H113       32.8227   27.2904   -0.2575 H         1 UNK         0.0806 
    114 H114       33.7809   28.3188   -1.3042 H         1 UNK         0.0806 
    115 H115       34.4275   30.3316   -0.4100 H         1 UNK         0.3010 
    116 H116       33.8968   32.9300   -1.5558 H         1 UNK         0.0829 
    117 H117       36.1174   31.8211   -1.7506 H         1 UNK         0.0813 
    118 H118       36.2750   33.3644   -0.9297 H         1 UNK         0.0813 
    119 H119       36.3233   31.8743    0.0014 H         1 UNK         0.0813 
    120 H120       33.6048   31.6282    1.6430 H         1 UNK         0.3038 
    121 H121       32.5113   34.0807    2.6908 H         1 UNK         0.0769 
    122 H122       34.8687   32.6809    4.1112 H         1 UNK         0.0811 
    123 H123       33.9220   34.0085    4.7711 H         1 UNK         0.0811 
    124 H124       34.9493   34.2801    3.3759 H         1 UNK         0.0811 
    125 H125       31.6116   33.4315    4.9700 H         1 UNK         0.3204 
    126 H126       30.0870   30.9542    4.7644 H         1 UNK         0.0748 
    127 H127       30.1946   33.1158    6.9322 H         1 UNK         0.0771 
    128 H128       29.0246   33.0158    5.6161 H         1 UNK         0.0771 
    129 H129       29.0457   31.7858    6.8683 H         1 UNK         0.0771 
    130 H130       32.1137   29.6764    4.6320 H         1 UNK         0.2980 
    131 H131       33.8742   29.4103    6.7997 H         1 UNK         0.0545 
    132 H132       30.9885   26.7743    7.8990 H         1 UNK         0.3459 
    133 H133       30.7214   27.7569    6.4786 H         1 UNK         0.3459 
    134 H134       34.5451   28.8918    4.5270 H         1 UNK         0.0616 
    135 H135       34.8429   27.5224    5.5506 H         1 UNK         0.0616 
    136 H136       33.6264   25.4186    5.5863 H         1 UNK         0.0634 
    137 H137       34.5397   25.2113    4.1114 H         1 UNK         0.0634 
@<TRIPOS>BOND
     1    1    2 1    
     2    1   72 1    
     3    1   73 1    
     4    1   74 1    
     5    2    3 2    
     6    2    4 am   BACKBONE|DICT|INTERRES
     7    4    5 1    
     8    4   75 1    
     9    5    6 1    
    10    5   35 1    
    11    5   76 1    
    12    6    7 1    
    13    6   77 1    
    14    6   78 1    
    15    7    8 1    
    16    8    9 1    
    17    8   79 1    
    18    8   80 1    
    19    9   10 ar   
    20    9   14 ar   
    21   10   11 ar   
    22   10   81 1    
    23   11   12 ar   
    24   11   71 1    
    25   12   13 ar   
    26   12   82 1    
    27   13   14 ar   
    28   13   15 1    
    29   14   83 1    
    30   15   16 1    
    31   15   84 1    
    32   15   85 1    
    33   16   17 1    
    34   17   18 1    
    35   17   86 1    
    36   17   87 1    
    37   18   19 1    
    38   18   37 1    
    39   18   88 1    
    40   19   20 am   BACKBONE|DICT|INTERRES
    41   19   89 1    
    42   20   21 2    
    43   20   22 1    
    44   22   23 1    
    45   22   24 1    
    46   22   90 1    
    47   23   91 1    
    48   23   92 1    
    49   23   93 1    
    50   24   25 am   BACKBONE|DICT|INTERRES
    51   24   94 1    
    52   25   26 2    
    53   25   27 1    
    54   27   28 1    
    55   27   29 1    
    56   27   95 1    
    57   28   96 1    
    58   28   97 1    
    59   28   98 1    
    60   29   30 am   BACKBONE|DICT|INTERRES
    61   29   99 1    
    62   30   31 2    
    63   30   32 1    
    64   32   33 1    
    65   32   34 1    
    66   32  100 1    
    67   33  101 1    
    68   33  102 1    
    69   33  103 1    
    70   34   35 am   BACKBONE|DICT|INTERRES
    71   34  104 1    
    72   35   36 2    
    73   37   38 2    
    74   37   39 am   BACKBONE|DICT|INTERRES
    75   39   40 1    
    76   39  105 1    
    77   40   41 1    
    78   40   42 1    
    79   40  106 1    
    80   41  107 1    
    81   41  108 1    
    82   41  109 1    
    83   42   43 2    
    84   42   44 am   BACKBONE|DICT|INTERRES
    85   44   45 1    
    86   44  110 1    
    87   45   46 1    
    88   45   47 1    
    89   45  111 1    
    90   46  112 1    
    91   46  113 1    
    92   46  114 1    
    93   47   48 2    
    94   47   49 am   BACKBONE|DICT|INTERRES
    95   49   50 1    
    96   49  115 1    
    97   50   51 1    
    98   50   52 1    
    99   50  116 1    
   100   51  117 1    
   101   51  118 1    
   102   51  119 1    
   103   52   53 2    
   104   52   54 am   BACKBONE|DICT|INTERRES
   105   54   55 1    
   106   54  120 1    
   107   55   56 1    
   108   55   57 1    
   109   55  121 1    
   110   56  122 1    
   111   56  123 1    
   112   56  124 1    
   113   57   58 2    
   114   57   59 am   BACKBONE|DICT|INTERRES
   115   59   60 1    
   116   59  125 1    
   117   60   61 1    
   118   60   62 1    
   119   60  126 1    
   120   61  127 1    
   121   61  128 1    
   122   61  129 1    
   123   62   63 2    
   124   62   64 am   BACKBONE|DICT|INTERRES
   125   64   65 1    
   126   64  130 1    
   127   65   66 1    
   128   65   69 1    
   129   65  131 1    
   130   66   67 am   BACKBONE|DICT|INTERRES
   131   66   68 2    
   132   67  132 1    
   133   67  133 1    
   134   69   70 1    
   135   69  134 1    
   136   69  135 1    
   137   70   71 1    
   138   71  136 1    
   139   71  137 1    
@<TRIPOS>SUBSTRUCTURE
     1 UNK         1 GROUP             0       ****    0 ROOT    
