@<TRIPOS>MOLECULE
3R136
137   139    1
SMALL
USER_CHARGES


@<TRIPOS>ATOM
      1 CA         26.4475   19.5671    0.8619 C.3       0 UNK        -0.1979 
      2 C          26.9543   20.9053    0.3479 C.2       0 UNK         0.4864 
      3 O          26.1671   21.8432    0.2029 O.2       0 UNK        -0.5359 
      4 N          28.2661   21.0135    0.0868 N.am      1 UNK        -0.4318 
      5 CA         28.9190   22.2254   -0.4260 C.3       1 UNK         0.0824 
      6 C6         30.4072   22.0016   -0.7918 C.3       12 UNK        -0.0944 
      7 S7         31.4570   21.4790    0.6102 S.3       12 UNK        -0.2672 
      8 C8         32.8720   22.6191    0.4675 C.3       12 UNK         0.0333 
      9 C9         32.5554   24.0333    0.9419 C.ar      12 UNK        -0.0807 
     10 C10        32.4159   24.2968    2.3080 C.ar      12 UNK        -0.0894 
     11 C11        32.2050   25.6021    2.7609 C.ar      12 UNK        -0.0804 
     12 C12        32.1346   26.6490    1.8382 C.ar      12 UNK        -0.0824 
     13 C13        32.2555   26.4018    0.4669 C.ar      12 UNK        -0.0762 
     14 C14        32.4639   25.0887    0.0263 C.ar      12 UNK        -0.0782 
     15 C15        32.1875   27.5499   -0.5416 C.3       12 UNK         0.0230 
     16 S16        30.7522   28.6591   -0.3066 S.3       12 UNK        -0.2608 
     17 C17        29.4032   27.4401   -0.2045 C.3       12 UNK        -0.0989 
     18 CA         28.0114   27.9520   -0.6498 C.3       5 UNK         0.0716 
     19 N          27.1173   26.8122   -0.8443 N.am      5 UNK        -0.4135 
     20 C          25.9822   26.7818   -1.5504 C.2       4 UNK         0.5031 
     21 O          25.5440   27.7420   -2.1866 O.2       4 UNK        -0.5229 
     22 CA         25.2022   25.4543   -1.5306 C.3       4 UNK         0.0329 
     23 CB         25.7706   24.4763   -2.5713 C.3       4 UNK        -0.2001 
     24 N          25.2019   24.8133   -0.2111 N.am      4 UNK        -0.4303 
     25 C          24.5658   25.2953    0.8677 C.2       3 UNK         0.5044 
     26 O          23.8668   26.3089    0.8567 O.2       3 UNK        -0.5152 
     27 CA         24.7473   24.5235    2.1842 C.3       3 UNK         0.0319 
     28 CB         23.7903   23.3222    2.2547 C.3       3 UNK        -0.2001 
     29 N          26.1294   24.0707    2.3519 N.am      3 UNK        -0.4354 
     30 C          27.1169   24.8423    2.8326 C.2       2 UNK         0.4964 
     31 O          26.9411   25.9795    3.2686 O.2       2 UNK        -0.5047 
     32 CA         28.5443   24.2610    2.8334 C.3       2 UNK         0.0288 
     33 CB         28.8858   23.6744    4.2124 C.3       2 UNK        -0.2113 
     34 N          28.7739   23.2371    1.8125 N.am      2 UNK        -0.4145 
     35 C          28.7225   23.4481    0.4899 C.2       1 UNK         0.5006 
     36 O          28.4547   24.5338   -0.0164 O.2       1 UNK        -0.5103 
     37 C          27.3833   28.9663    0.3312 C.2       5 UNK         0.5055 
     38 O          27.8368   29.1043    1.4687 O.2       5 UNK        -0.5220 
     39 N          26.3327   29.6597   -0.1246 N.am      6 UNK        -0.4450 
     40 CA         25.6373   30.7281    0.5959 C.3       6 UNK         0.0367 
     41 CB         24.2056   30.8494    0.0420 C.3       6 UNK        -0.1929 
     42 C          26.4250   32.0506    0.5115 C.2       6 UNK         0.5070 
     43 O          25.9457   33.0259   -0.0699 O.2       6 UNK        -0.5237 
     44 N          27.6398   32.0461    1.0652 N.am      7 UNK        -0.4739 
     45 CA         28.5988   33.1465    1.0679 C.3       7 UNK         0.0276 
     46 CB         29.3601   33.1640   -0.2727 C.3       7 UNK        -0.1927 
     47 C          29.5597   32.9674    2.2516 C.2       7 UNK         0.5013 
     48 O          29.5292   31.9283    2.9176 O.2       7 UNK        -0.5193 
     49 N          30.4048   33.9786    2.4906 N.am      8 UNK        -0.4253 
     50 CA         31.4905   33.9255    3.4726 C.3       8 UNK         0.0242 
     51 CB         32.0677   35.3368    3.6710 C.3       8 UNK        -0.2000 
     52 C          32.5904   32.9464    3.0259 C.2       8 UNK         0.4948 
     53 O          32.9257   32.9073    1.8390 O.2       8 UNK        -0.5275 
     54 N          33.1406   32.1944    3.9823 N.am      9 UNK        -0.4246 
     55 CA         34.1749   31.1854    3.7778 C.3       9 UNK         0.0261 
     56 CB         33.5344   29.8759    3.2720 C.3       9 UNK        -0.1959 
     57 C          34.9121   30.9632    5.1027 C.2       9 UNK         0.5033 
     58 O          34.4256   31.3837    6.1568 O.2       9 UNK        -0.5390 
     59 N          36.0518   30.2636    5.0318 N.am      10 UNK        -0.4215 
     60 CA         36.8933   29.8890    6.1765 C.3       10 UNK         0.0240 
     61 CB         38.2479   29.3843    5.6495 C.3       10 UNK        -0.1982 
     62 C          36.2613   28.8514    7.1295 C.2       10 UNK         0.4970 
     63 O          36.8377   28.5816    8.1840 O.2       10 UNK        -0.4916 
     64 N          35.1090   28.2859    6.7477 N.am      11 UNK        -0.4279 
     65 CA         34.3216   27.3089    7.5148 C.3       11 UNK         0.1003 
     66 C          33.7745   27.8312    8.8760 C.2       11 UNK         0.5709 
     67 N          33.6583   29.1380    9.0856 N.am      11 UNK        -0.7358 
     68 O          33.4503   27.0346    9.7535 O.2       11 UNK        -0.4999 
     69 C69        33.1582   26.7275    6.6671 C.3       12 UNK        -0.0954 
     70 S70        33.6808   26.1083    5.0336 S.3       12 UNK        -0.2268 
     71 C71        32.0585   25.8876    4.2460 C.3       12 UNK         0.0203 
     72 H72        25.7011   19.1634    0.1785 H         1 UNK         0.0888 
     73 H73        25.9822   19.6934    1.8391 H         1 UNK         0.0888 
     74 H74        27.2505   18.8367    0.9588 H         1 UNK         0.0888 
     75 H75        28.8745   20.2207    0.2370 H         1 UNK         0.3017 
     76 H76        28.4027   22.4675   -1.3576 H         1 UNK         0.0873 
     77 H77        30.4799   21.2341   -1.5639 H         1 UNK         0.0745 
     78 H78        30.8176   22.9057   -1.2452 H         1 UNK         0.0745 
     79 H79        33.6934   22.2245    1.0674 H         1 UNK         0.0705 
     80 H80        33.2303   22.6233   -0.5632 H         1 UNK         0.0705 
     81 H81        32.4884   23.4863    3.0205 H         1 UNK         0.1334 
     82 H82        31.9773   27.6603    2.1861 H         1 UNK         0.1417 
     83 H83        32.5776   24.8902   -1.0307 H         1 UNK         0.1562 
     84 H84        32.1560   27.1621   -1.5609 H         1 UNK         0.0748 
     85 H85        33.1020   28.1394   -0.4654 H         1 UNK         0.0748 
     86 H86        29.3653   27.0328    0.8081 H         1 UNK         0.0940 
     87 H87        29.6921   26.6083   -0.8487 H         1 UNK         0.0940 
     88 H88        28.1304   28.4525   -1.6132 H         1 UNK         0.0703 
     89 H89        27.4263   25.9477   -0.4027 H         1 UNK         0.3081 
     90 H90        24.1666   25.6741   -1.7987 H         1 UNK         0.0719 
     91 H91        26.8060   24.2115   -2.3544 H         1 UNK         0.0809 
     92 H92        25.1903   23.5541   -2.6073 H         1 UNK         0.0809 
     93 H93        25.7477   24.9136   -3.5704 H         1 UNK         0.0809 
     94 H94        25.7213   23.9474   -0.1181 H         1 UNK         0.2990 
     95 H95        24.4918   25.1975    3.0050 H         1 UNK         0.0690 
     96 H96        23.8939   22.7882    3.1993 H         1 UNK         0.0788 
     97 H97        23.9643   22.6110    1.4469 H         1 UNK         0.0788 
     98 H98        22.7524   23.6493    2.1798 H         1 UNK         0.0788 
     99 H99        26.3566   23.1608    1.9708 H         1 UNK         0.2993 
    100 H100       29.2301   25.0863    2.6289 H         1 UNK         0.0949 
    101 H101       28.7963   24.4329    4.9913 H         1 UNK         0.0767 
    102 H102       28.2188   22.8530    4.4774 H         1 UNK         0.0767 
    103 H103       29.9085   23.2982    4.2422 H         1 UNK         0.0767 
    104 H104       29.0004   22.3079    2.1358 H         1 UNK         0.3013 
    105 H105       25.9904   29.4338   -1.0527 H         1 UNK         0.3121 
    106 H106       25.5638   30.4567    1.6514 H         1 UNK         0.0774 
    107 H107       24.2016   31.1111   -1.0168 H         1 UNK         0.0815 
    108 H108       23.6460   31.6211    0.5722 H         1 UNK         0.0815 
    109 H109       23.6566   29.9144    0.1579 H         1 UNK         0.0815 
    110 H110       27.9571   31.2070    1.5464 H         1 UNK         0.2987 
    111 H111       28.0648   34.0896    1.2040 H         1 UNK         0.0949 
    112 H112       29.9143   32.2371   -0.4287 H         1 UNK         0.0806 
    113 H113       28.6808   33.2924   -1.1155 H         1 UNK         0.0806 
    114 H114       30.0780   33.9838   -0.3137 H         1 UNK         0.0806 
    115 H115       30.3877   34.7831    1.8810 H         1 UNK         0.3010 
    116 H116       31.0740   33.5829    4.4227 H         1 UNK         0.0829 
    117 H117       31.3042   36.0341    4.0164 H         1 UNK         0.0813 
    118 H118       32.8621   35.3315    4.4186 H         1 UNK         0.0813 
    119 H119       32.4928   35.7328    2.7477 H         1 UNK         0.0813 
    120 H120       32.8795   32.3225    4.9532 H         1 UNK         0.3038 
    121 H121       34.8958   31.5527    3.0441 H         1 UNK         0.0769 
    122 H122       32.8128   29.4786    3.9872 H         1 UNK         0.0811 
    123 H123       34.2836   29.1023    3.0993 H         1 UNK         0.0811 
    124 H124       33.0127   30.0291    2.3267 H         1 UNK         0.0811 
    125 H125       36.3696   29.9511    4.1248 H         1 UNK         0.3204 
    126 H126       37.0724   30.7902    6.7669 H         1 UNK         0.0748 
    127 H127       38.9239   29.1419    6.4709 H         1 UNK         0.0771 
    128 H128       38.1352   28.4834    5.0447 H         1 UNK         0.0771 
    129 H129       38.7444   30.1398    5.0401 H         1 UNK         0.0771 
    130 H130       34.7172   28.5566    5.8598 H         1 UNK         0.2980 
    131 H131       34.9986   26.4869    7.7539 H         1 UNK         0.0545 
    132 H132       33.3054   29.4674    9.9700 H         1 UNK         0.3459 
    133 H133       33.9169   29.7963    8.3661 H         1 UNK         0.3459 
    134 H134       32.6726   25.9064    7.1980 H         1 UNK         0.0616 
    135 H135       32.3928   27.4909    6.5131 H         1 UNK         0.0616 
    136 H136       31.5299   25.0709    4.7385 H         1 UNK         0.0634 
    137 H137       31.4526   26.7831    4.3938 H         1 UNK         0.0634 
@<TRIPOS>BOND
     1    1    2 1    
     2    1   72 1    
     3    1   73 1    
     4    1   74 1    
     5    2    3 2    
     6    2    4 am   BACKBONE|DICT|INTERRES
     7    4    5 1    
     8    4   75 1    
     9    5    6 1    
    10    5   35 1    
    11    5   76 1    
    12    6    7 1    
    13    6   77 1    
    14    6   78 1    
    15    7    8 1    
    16    8    9 1    
    17    8   79 1    
    18    8   80 1    
    19    9   10 ar   
    20    9   14 ar   
    21   10   11 ar   
    22   10   81 1    
    23   11   12 ar   
    24   11   71 1    
    25   12   13 ar   
    26   12   82 1    
    27   13   14 ar   
    28   13   15 1    
    29   14   83 1    
    30   15   16 1    
    31   15   84 1    
    32   15   85 1    
    33   16   17 1    
    34   17   18 1    
    35   17   86 1    
    36   17   87 1    
    37   18   19 1    
    38   18   37 1    
    39   18   88 1    
    40   19   20 am   BACKBONE|DICT|INTERRES
    41   19   89 1    
    42   20   21 2    
    43   20   22 1    
    44   22   23 1    
    45   22   24 1    
    46   22   90 1    
    47   23   91 1    
    48   23   92 1    
    49   23   93 1    
    50   24   25 am   BACKBONE|DICT|INTERRES
    51   24   94 1    
    52   25   26 2    
    53   25   27 1    
    54   27   28 1    
    55   27   29 1    
    56   27   95 1    
    57   28   96 1    
    58   28   97 1    
    59   28   98 1    
    60   29   30 am   BACKBONE|DICT|INTERRES
    61   29   99 1    
    62   30   31 2    
    63   30   32 1    
    64   32   33 1    
    65   32   34 1    
    66   32  100 1    
    67   33  101 1    
    68   33  102 1    
    69   33  103 1    
    70   34   35 am   BACKBONE|DICT|INTERRES
    71   34  104 1    
    72   35   36 2    
    73   37   38 2    
    74   37   39 am   BACKBONE|DICT|INTERRES
    75   39   40 1    
    76   39  105 1    
    77   40   41 1    
    78   40   42 1    
    79   40  106 1    
    80   41  107 1    
    81   41  108 1    
    82   41  109 1    
    83   42   43 2    
    84   42   44 am   BACKBONE|DICT|INTERRES
    85   44   45 1    
    86   44  110 1    
    87   45   46 1    
    88   45   47 1    
    89   45  111 1    
    90   46  112 1    
    91   46  113 1    
    92   46  114 1    
    93   47   48 2    
    94   47   49 am   BACKBONE|DICT|INTERRES
    95   49   50 1    
    96   49  115 1    
    97   50   51 1    
    98   50   52 1    
    99   50  116 1    
   100   51  117 1    
   101   51  118 1    
   102   51  119 1    
   103   52   53 2    
   104   52   54 am   BACKBONE|DICT|INTERRES
   105   54   55 1    
   106   54  120 1    
   107   55   56 1    
   108   55   57 1    
   109   55  121 1    
   110   56  122 1    
   111   56  123 1    
   112   56  124 1    
   113   57   58 2    
   114   57   59 am   BACKBONE|DICT|INTERRES
   115   59   60 1    
   116   59  125 1    
   117   60   61 1    
   118   60   62 1    
   119   60  126 1    
   120   61  127 1    
   121   61  128 1    
   122   61  129 1    
   123   62   63 2    
   124   62   64 am   BACKBONE|DICT|INTERRES
   125   64   65 1    
   126   64  130 1    
   127   65   66 1    
   128   65   69 1    
   129   65  131 1    
   130   66   67 am   BACKBONE|DICT|INTERRES
   131   66   68 2    
   132   67  132 1    
   133   67  133 1    
   134   69   70 1    
   135   69  134 1    
   136   69  135 1    
   137   70   71 1    
   138   71  136 1    
   139   71  137 1    
@<TRIPOS>SUBSTRUCTURE
     1 UNK         1 GROUP             0       ****    0 ROOT    
