@<TRIPOS>MOLECULE
3R136
137   139    1
SMALL
USER_CHARGES


@<TRIPOS>ATOM
      1 CA         27.0808   19.2567    0.1334 C.3       0 UNK        -0.1979 
      2 C          28.1393   19.7818    1.1005 C.2       0 UNK         0.4864 
      3 O          28.2114   19.3037    2.2310 O.2       0 UNK        -0.5359 
      4 N          28.9833   20.7523    0.7174 N.am      1 UNK        -0.4318 
      5 CA         29.0101   21.4615   -0.5701 C.3       1 UNK         0.0824 
      6 C6         30.3549   22.2144   -0.7675 C.3       12 UNK        -0.0944 
      7 S7         30.5638   23.6820    0.3040 S.3       12 UNK        -0.2672 
      8 C8         31.6275   23.0571    1.6386 C.3       12 UNK         0.0333 
      9 C9         31.4763   23.9323    2.8722 C.ar      12 UNK        -0.0807 
     10 C10        32.3914   24.9550    3.1386 C.ar      12 UNK        -0.0894 
     11 C11        32.2232   25.7832    4.2528 C.ar      12 UNK        -0.0804 
     12 C12        31.1361   25.5769    5.1071 C.ar      12 UNK        -0.0824 
     13 C13        30.2057   24.5695    4.8406 C.ar      12 UNK        -0.0762 
     14 C14        30.3897   23.7404    3.7303 C.ar      12 UNK        -0.0782 
     15 C15        28.9771   24.4020    5.7255 C.3       12 UNK         0.0230 
     16 S16        27.8711   25.8550    5.6731 S.3       12 UNK        -0.2608 
     17 C17        27.6589   26.1346    3.8811 C.3       12 UNK        -0.0989 
     18 CA         28.3930   27.4249    3.4156 C.3       5 UNK         0.0716 
     19 N          29.0943   27.2466    2.1422 N.am      5 UNK        -0.4135 
     20 C          29.9668   28.1219    1.6211 C.2       4 UNK         0.5031 
     21 O          30.3526   29.1360    2.2014 O.2       4 UNK        -0.5229 
     22 CA         30.4680   27.8504    0.1940 C.3       4 UNK         0.0329 
     23 CB         31.8324   27.1490    0.2163 C.3       4 UNK        -0.2001 
     24 N          29.5073   27.0873   -0.6107 N.am      4 UNK        -0.4303 
     25 C          28.3601   27.6122   -1.0667 C.2       3 UNK         0.5044 
     26 O          28.0117   28.7740   -0.8561 O.2       3 UNK        -0.5152 
     27 CA         27.4284   26.6818   -1.8592 C.3       3 UNK         0.0319 
     28 CB         28.0134   26.3717   -3.2465 C.3       3 UNK        -0.2001 
     29 N          27.1008   25.4274   -1.1759 N.am      3 UNK        -0.4354 
     30 C          26.5532   25.3029    0.0403 C.2       2 UNK         0.4964 
     31 O          26.3551   26.2479    0.8029 O.2       2 UNK        -0.5047 
     32 CA         26.1656   23.8857    0.4995 C.3       2 UNK         0.0288 
     33 CB         24.8546   23.4207   -0.1638 C.3       2 UNK        -0.2113 
     34 N          27.2355   22.8905    0.3513 N.am      2 UNK        -0.4145 
     35 C          27.8025   22.4067   -0.7663 C.2       1 UNK         0.5006 
     36 O          27.4413   22.6977   -1.9076 O.2       1 UNK        -0.5103 
     37 C          27.4403   28.6338    3.3409 C.2       5 UNK         0.5055 
     38 O          27.5441   29.5477    4.1621 O.2       5 UNK        -0.5220 
     39 N          26.5740   28.6295    2.3148 N.am      6 UNK        -0.4450 
     40 CA         25.6091   29.6842    1.9931 C.3       6 UNK         0.0367 
     41 CB         24.7394   29.2328    0.8094 C.3       6 UNK        -0.1929 
     42 C          26.2587   31.0459    1.6971 C.2       6 UNK         0.5070 
     43 O          25.6782   32.0757    2.0381 O.2       6 UNK        -0.5237 
     44 N          27.4755   31.0366    1.1370 N.am      7 UNK        -0.4739 
     45 CA         28.3312   32.2082    0.9126 C.3       7 UNK         0.0276 
     46 CB         29.3536   31.8666   -0.1864 C.3       7 UNK        -0.1927 
     47 C          29.0166   32.7398    2.1947 C.2       7 UNK         0.5013 
     48 O          30.1066   33.3057    2.1050 O.2       7 UNK        -0.5193 
     49 N          28.3698   32.5617    3.3562 N.am      8 UNK        -0.4253 
     50 CA         28.7953   32.9564    4.7028 C.3       8 UNK         0.0242 
     51 CB         28.8425   34.4943    4.8355 C.3       8 UNK        -0.2000 
     52 C          30.1005   32.2667    5.1421 C.2       8 UNK         0.4948 
     53 O          30.9994   32.9315    5.6613 O.2       8 UNK        -0.5275 
     54 N          30.1617   30.9416    4.9356 N.am      9 UNK        -0.4246 
     55 CA         31.2786   30.0449    5.2614 C.3       9 UNK         0.0261 
     56 CB         31.4318   29.8976    6.7904 C.3       9 UNK        -0.1959 
     57 C          32.5902   30.4513    4.5582 C.2       9 UNK         0.5033 
     58 O          33.6033   30.7064    5.2136 O.2       9 UNK        -0.5390 
     59 N          32.5449   30.4935    3.2225 N.am      10 UNK        -0.4215 
     60 CA         33.6495   30.8619    2.3356 C.3       10 UNK         0.0240 
     61 CB         33.0607   31.3445    0.9965 C.3       10 UNK        -0.1982 
     62 C          34.6555   29.7080    2.1519 C.2       10 UNK         0.4970 
     63 O          34.8083   29.1967    1.0413 O.2       10 UNK        -0.4916 
     64 N          35.3193   29.3102    3.2405 N.am      11 UNK        -0.4279 
     65 CA         36.3424   28.2570    3.2721 C.3       11 UNK         0.1003 
     66 C          37.4104   28.5269    4.3669 C.2       11 UNK         0.5709 
     67 N          38.4747   27.7363    4.4062 N.am      11 UNK        -0.7358 
     68 O          37.2934   29.4471    5.1753 O.2       11 UNK        -0.4999 
     69 C69        35.7259   26.8266    3.3173 C.3       12 UNK        -0.0954 
     70 S70        34.8656   26.4214    4.8779 S.3       12 UNK        -0.2268 
     71 C71        33.1673   26.9467    4.5035 C.3       12 UNK         0.0203 
     72 H72        27.5125   19.0018   -0.8335 H         1 UNK         0.0888 
     73 H73        26.6204   18.3525    0.5312 H         1 UNK         0.0888 
     74 H74        26.2900   19.9916   -0.0137 H         1 UNK         0.0888 
     75 H75        29.6839   21.0514    1.3787 H         1 UNK         0.3017 
     76 H76        28.9521   20.7120   -1.3612 H         1 UNK         0.0873 
     77 H77        31.1955   21.5336   -0.6231 H         1 UNK         0.0745 
     78 H78        30.4347   22.5529   -1.8023 H         1 UNK         0.0745 
     79 H79        31.3636   22.0283    1.8851 H         1 UNK         0.0705 
     80 H80        32.6640   23.0392    1.2981 H         1 UNK         0.0705 
     81 H81        33.2232   25.1198    2.4681 H         1 UNK         0.1334 
     82 H82        30.9859   26.2247    5.9602 H         1 UNK         0.1417 
     83 H83        29.6706   22.9622    3.5150 H         1 UNK         0.1562 
     84 H84        29.2959   24.2356    6.7554 H         1 UNK         0.0748 
     85 H85        28.4070   23.5181    5.4351 H         1 UNK         0.0748 
     86 H86        26.5897   26.1609    3.6595 H         1 UNK         0.0940 
     87 H87        28.0259   25.2615    3.3415 H         1 UNK         0.0940 
     88 H88        29.1666   27.6711    4.1456 H         1 UNK         0.0703 
     89 H89        28.8178   26.4580    1.5777 H         1 UNK         0.3081 
     90 H90        30.6108   28.8193   -0.2882 H         1 UNK         0.0719 
     91 H91        32.5642   27.7457    0.7610 H         1 UNK         0.0809 
     92 H92        32.2218   26.9978   -0.7903 H         1 UNK         0.0809 
     93 H93        31.7823   26.1816    0.7086 H         1 UNK         0.0809 
     94 H94        29.7256   26.1205   -0.8094 H         1 UNK         0.2990 
     95 H95        26.4883   27.2180   -2.0041 H         1 UNK         0.0690 
     96 H96        27.2985   25.8273   -3.8639 H         1 UNK         0.0788 
     97 H97        28.9213   25.7708   -3.1797 H         1 UNK         0.0788 
     98 H98        28.2661   27.2896   -3.7794 H         1 UNK         0.0788 
     99 H99        27.2350   24.5683   -1.7030 H         1 UNK         0.2993 
    100 H100       25.9762   23.9535    1.5723 H         1 UNK         0.0949 
    101 H101       24.5419   22.4488    0.2179 H         1 UNK         0.0767 
    102 H102       24.0465   24.1243    0.0408 H         1 UNK         0.0767 
    103 H103       24.9456   23.3412   -1.2474 H         1 UNK         0.0767 
    104 H104       27.6507   22.5889    1.2214 H         1 UNK         0.3013 
    105 H105       26.5632   27.8164    1.7000 H         1 UNK         0.3121 
    106 H106       24.9640   29.8121    2.8647 H         1 UNK         0.0774 
    107 H107       25.3379   29.0580   -0.0856 H         1 UNK         0.0815 
    108 H108       23.9923   29.9880    0.5618 H         1 UNK         0.0815 
    109 H109       24.2053   28.3104    1.0383 H         1 UNK         0.0815 
    110 H110       27.8530   30.1429    0.8436 H         1 UNK         0.2987 
    111 H111       27.7023   33.0194    0.5399 H         1 UNK         0.0949 
    112 H112       30.0530   31.1014    0.1483 H         1 UNK         0.0806 
    113 H113       28.8629   31.5019   -1.0890 H         1 UNK         0.0806 
    114 H114       29.9387   32.7425   -0.4695 H         1 UNK         0.0806 
    115 H115       27.4765   32.0878    3.3055 H         1 UNK         0.3010 
    116 H116       28.0218   32.5941    5.3817 H         1 UNK         0.0829 
    117 H117       29.6273   34.9311    4.2171 H         1 UNK         0.0813 
    118 H118       27.8947   34.9472    4.5448 H         1 UNK         0.0813 
    119 H119       29.0398   34.7909    5.8664 H         1 UNK         0.0813 
    120 H120       29.3596   30.5005    4.4947 H         1 UNK         0.3038 
    121 H121       31.0059   29.0661    4.8664 H         1 UNK         0.0769 
    122 H122       32.2127   29.1787    7.0399 H         1 UNK         0.0811 
    123 H123       31.7015   30.8420    7.2641 H         1 UNK         0.0811 
    124 H124       30.5079   29.5443    7.2481 H         1 UNK         0.0811 
    125 H125       31.6844   30.1797    2.7720 H         1 UNK         0.3204 
    126 H126       34.1913   31.6987    2.7813 H         1 UNK         0.0748 
    127 H127       32.4007   32.1999    1.1399 H         1 UNK         0.0771 
    128 H128       33.8491   31.6573    0.3107 H         1 UNK         0.0771 
    129 H129       32.4880   30.5591    0.5018 H         1 UNK         0.0771 
    130 H130       35.1459   29.7782    4.1253 H         1 UNK         0.2980 
    131 H131       36.8976   28.3379    2.3355 H         1 UNK         0.0545 
    132 H132       38.5866   26.9779    3.7518 H         1 UNK         0.3459 
    133 H133       39.1781   27.8984    5.1097 H         1 UNK         0.3459 
    134 H134       35.0418   26.6879    2.4793 H         1 UNK         0.0616 
    135 H135       36.5082   26.0806    3.1712 H         1 UNK         0.0616 
    136 H136       32.8215   27.5377    5.3504 H         1 UNK         0.0634 
    137 H137       33.1460   27.6067    3.6373 H         1 UNK         0.0634 
@<TRIPOS>BOND
     1    1    2 1    
     2    1   72 1    
     3    1   73 1    
     4    1   74 1    
     5    2    3 2    
     6    2    4 am   BACKBONE|DICT|INTERRES
     7    4    5 1    
     8    4   75 1    
     9    5    6 1    
    10    5   35 1    
    11    5   76 1    
    12    6    7 1    
    13    6   77 1    
    14    6   78 1    
    15    7    8 1    
    16    8    9 1    
    17    8   79 1    
    18    8   80 1    
    19    9   10 ar   
    20    9   14 ar   
    21   10   11 ar   
    22   10   81 1    
    23   11   12 ar   
    24   11   71 1    
    25   12   13 ar   
    26   12   82 1    
    27   13   14 ar   
    28   13   15 1    
    29   14   83 1    
    30   15   16 1    
    31   15   84 1    
    32   15   85 1    
    33   16   17 1    
    34   17   18 1    
    35   17   86 1    
    36   17   87 1    
    37   18   19 1    
    38   18   37 1    
    39   18   88 1    
    40   19   20 am   BACKBONE|DICT|INTERRES
    41   19   89 1    
    42   20   21 2    
    43   20   22 1    
    44   22   23 1    
    45   22   24 1    
    46   22   90 1    
    47   23   91 1    
    48   23   92 1    
    49   23   93 1    
    50   24   25 am   BACKBONE|DICT|INTERRES
    51   24   94 1    
    52   25   26 2    
    53   25   27 1    
    54   27   28 1    
    55   27   29 1    
    56   27   95 1    
    57   28   96 1    
    58   28   97 1    
    59   28   98 1    
    60   29   30 am   BACKBONE|DICT|INTERRES
    61   29   99 1    
    62   30   31 2    
    63   30   32 1    
    64   32   33 1    
    65   32   34 1    
    66   32  100 1    
    67   33  101 1    
    68   33  102 1    
    69   33  103 1    
    70   34   35 am   BACKBONE|DICT|INTERRES
    71   34  104 1    
    72   35   36 2    
    73   37   38 2    
    74   37   39 am   BACKBONE|DICT|INTERRES
    75   39   40 1    
    76   39  105 1    
    77   40   41 1    
    78   40   42 1    
    79   40  106 1    
    80   41  107 1    
    81   41  108 1    
    82   41  109 1    
    83   42   43 2    
    84   42   44 am   BACKBONE|DICT|INTERRES
    85   44   45 1    
    86   44  110 1    
    87   45   46 1    
    88   45   47 1    
    89   45  111 1    
    90   46  112 1    
    91   46  113 1    
    92   46  114 1    
    93   47   48 2    
    94   47   49 am   BACKBONE|DICT|INTERRES
    95   49   50 1    
    96   49  115 1    
    97   50   51 1    
    98   50   52 1    
    99   50  116 1    
   100   51  117 1    
   101   51  118 1    
   102   51  119 1    
   103   52   53 2    
   104   52   54 am   BACKBONE|DICT|INTERRES
   105   54   55 1    
   106   54  120 1    
   107   55   56 1    
   108   55   57 1    
   109   55  121 1    
   110   56  122 1    
   111   56  123 1    
   112   56  124 1    
   113   57   58 2    
   114   57   59 am   BACKBONE|DICT|INTERRES
   115   59   60 1    
   116   59  125 1    
   117   60   61 1    
   118   60   62 1    
   119   60  126 1    
   120   61  127 1    
   121   61  128 1    
   122   61  129 1    
   123   62   63 2    
   124   62   64 am   BACKBONE|DICT|INTERRES
   125   64   65 1    
   126   64  130 1    
   127   65   66 1    
   128   65   69 1    
   129   65  131 1    
   130   66   67 am   BACKBONE|DICT|INTERRES
   131   66   68 2    
   132   67  132 1    
   133   67  133 1    
   134   69   70 1    
   135   69  134 1    
   136   69  135 1    
   137   70   71 1    
   138   71  136 1    
   139   71  137 1    
@<TRIPOS>SUBSTRUCTURE
     1 UNK         1 GROUP             0       ****    0 ROOT    
