@<TRIPOS>MOLECULE
3R136
137   139    1
SMALL
USER_CHARGES


@<TRIPOS>ATOM
      1 CA         27.7527   22.2313   -3.4000 C.3       0 UNK        -0.1979 
      2 C          28.2969   23.1401   -2.3093 C.2       0 UNK         0.4864 
      3 O          27.7707   24.2358   -2.1020 O.2       0 UNK        -0.5359 
      4 N          29.3364   22.6946   -1.5881 N.am      1 UNK        -0.4318 
      5 CA         29.9952   23.4643   -0.5248 C.3       1 UNK         0.0824 
      6 C6         31.3401   22.8558   -0.0614 C.3       12 UNK        -0.0944 
      7 S7         31.3408   21.0597    0.3010 S.3       12 UNK        -0.2672 
      8 C8         30.7571   20.8854    2.0286 C.3       12 UNK         0.0333 
      9 C9         31.2191   21.9770    2.9891 C.ar      12 UNK        -0.0807 
     10 C10        32.5585   22.3786    3.0497 C.ar      12 UNK        -0.0894 
     11 C11        32.9417   23.4449    3.8699 C.ar      12 UNK        -0.0804 
     12 C12        31.9900   24.0663    4.6838 C.ar      12 UNK        -0.0824 
     13 C13        30.6563   23.6494    4.6586 C.ar      12 UNK        -0.0762 
     14 C14        30.2803   22.6024    3.8147 C.ar      12 UNK        -0.0782 
     15 C15        29.6111   24.3452    5.5181 C.3       12 UNK         0.0230 
     16 S16        28.6419   25.5485    4.5545 S.3       12 UNK        -0.2608 
     17 C17        29.8959   26.8397    4.2570 C.3       12 UNK        -0.0989 
     18 CA         29.4193   28.0283    3.3870 C.3       5 UNK         0.0716 
     19 N          29.2029   27.6481    1.9857 N.am      5 UNK        -0.4135 
     20 C          29.2480   28.5140    0.9627 C.2       4 UNK         0.5031 
     21 O          29.4756   29.7137    1.0966 O.2       4 UNK        -0.5229 
     22 CA         28.9326   27.9789   -0.4434 C.3       4 UNK         0.0329 
     23 CB         30.1788   27.3312   -1.0655 C.3       4 UNK        -0.2001 
     24 N          27.7973   27.0511   -0.4751 N.am      4 UNK        -0.4303 
     25 C          26.5550   27.3595   -0.0709 C.2       3 UNK         0.5044 
     26 O          26.2431   28.4553    0.3957 O.2       3 UNK        -0.5152 
     27 CA         25.4957   26.2524   -0.1661 C.3       3 UNK         0.0319 
     28 CB         24.9423   26.1432   -1.5957 C.3       3 UNK        -0.2001 
     29 N          26.0520   24.9671    0.2580 N.am      3 UNK        -0.4354 
     30 C          26.1452   24.5876    1.5420 C.2       2 UNK         0.4964 
     31 O          25.6355   25.2107    2.4732 O.2       2 UNK        -0.5047 
     32 CA         26.9526   23.3120    1.8532 C.3       2 UNK         0.0288 
     33 CB         26.0255   22.0901    1.9464 C.3       2 UNK        -0.2113 
     34 N          28.0197   23.0345    0.8881 N.am      2 UNK        -0.4145 
     35 C          29.0750   23.8311    0.6583 C.2       1 UNK         0.5006 
     36 O          29.2993   24.8642    1.2886 O.2       1 UNK        -0.5103 
     37 C          28.2425   28.8040    4.0236 C.2       5 UNK         0.5055 
     38 O          28.4076   29.3245    5.1285 O.2       5 UNK        -0.5220 
     39 N          27.0905   28.8780    3.3410 N.am      6 UNK        -0.4450 
     40 CA         25.9825   29.7601    3.7057 C.3       6 UNK         0.0367 
     41 CB         24.6432   29.0819    3.3727 C.3       6 UNK        -0.1929 
     42 C          26.1129   31.1115    2.9847 C.2       6 UNK         0.5070 
     43 O          25.8552   32.1487    3.5959 O.2       6 UNK        -0.5237 
     44 N          26.5038   31.0791    1.7022 N.am      7 UNK        -0.4739 
     45 CA         26.6862   32.2568    0.8512 C.3       7 UNK         0.0276 
     46 CB         26.7778   31.8073   -0.6161 C.3       7 UNK        -0.1927 
     47 C          27.9097   33.1098    1.2313 C.2       7 UNK         0.5013 
     48 O          27.8103   34.3379    1.2244 O.2       7 UNK        -0.5193 
     49 N          29.0334   32.4529    1.5382 N.am      8 UNK        -0.4253 
     50 CA         30.3068   33.0613    1.9211 C.3       8 UNK         0.0242 
     51 CB         31.3664   32.6746    0.8741 C.3       8 UNK        -0.2000 
     52 C          30.7232   32.5673    3.3127 C.2       8 UNK         0.4948 
     53 O          30.1661   31.5915    3.8197 O.2       8 UNK        -0.5275 
     54 N          31.7194   33.2360    3.9077 N.am      9 UNK        -0.4246 
     55 CA         32.2708   32.9428    5.2356 C.3       9 UNK         0.0261 
     56 CB         33.0295   34.1849    5.7415 C.3       9 UNK        -0.1959 
     57 C          33.1402   31.6660    5.2590 C.2       9 UNK         0.5033 
     58 O          34.3375   31.7427    5.5438 O.2       9 UNK        -0.5390 
     59 N          32.5075   30.5221    4.9647 N.am      10 UNK        -0.4215 
     60 CA         33.0663   29.1659    4.8896 C.3       10 UNK         0.0240 
     61 CB         33.6060   28.7174    6.2669 C.3       10 UNK        -0.1982 
     62 C          34.0924   28.9872    3.7509 C.2       10 UNK         0.4970 
     63 O          34.2153   29.8499    2.8779 O.2       10 UNK        -0.4916 
     64 N          34.7715   27.8344    3.7517 N.am      11 UNK        -0.4279 
     65 CA         35.8189   27.4748    2.7856 C.3       11 UNK         0.1003 
     66 C          37.1244   28.2833    3.0140 C.2       11 UNK         0.5709 
     67 N          37.8336   28.6322    1.9492 N.am      11 UNK        -0.7358 
     68 O          37.5207   28.5571    4.1457 O.2       11 UNK        -0.4999 
     69 C69        36.1053   25.9499    2.7937 C.3       12 UNK        -0.0954 
     70 S70        34.6294   24.9776    2.3431 S.3       12 UNK        -0.2268 
     71 C71        34.3690   23.9659    3.8339 C.3       12 UNK         0.0203 
     72 H72        26.7054   22.0007   -3.2076 H         1 UNK         0.0888 
     73 H73        27.8204   22.7278   -4.3675 H         1 UNK         0.0888 
     74 H74        28.3029   21.2925   -3.4602 H         1 UNK         0.0888 
     75 H75        29.7327   21.7841   -1.7776 H         1 UNK         0.3017 
     76 H76        30.2470   24.4190   -0.9870 H         1 UNK         0.0873 
     77 H77        31.7561   23.4272    0.7683 H         1 UNK         0.0745 
     78 H78        32.0646   22.9928   -0.8655 H         1 UNK         0.0745 
     79 H79        31.0920   19.9206    2.4112 H         1 UNK         0.0705 
     80 H80        29.6674   20.8373    2.0060 H         1 UNK         0.0705 
     81 H81        33.2908   21.9048    2.4101 H         1 UNK         0.1334 
     82 H82        32.2806   24.8934    5.3168 H         1 UNK         0.1417 
     83 H83        29.2448   22.2938    3.7843 H         1 UNK         0.1562 
     84 H84        30.0774   24.8469    6.3675 H         1 UNK         0.0748 
     85 H85        28.9319   23.6023    5.9388 H         1 UNK         0.0748 
     86 H86        30.7623   26.3811    3.7793 H         1 UNK         0.0940 
     87 H87        30.2438   27.2019    5.2262 H         1 UNK         0.0940 
     88 H88        30.2444   28.7432    3.3792 H         1 UNK         0.0703 
     89 H89        29.0554   26.6574    1.7979 H         1 UNK         0.3081 
     90 H90        28.6555   28.8320   -1.0660 H         1 UNK         0.0719 
     91 H91        29.9571   26.8671   -2.0268 H         1 UNK         0.0809 
     92 H92        30.9523   28.0807   -1.2378 H         1 UNK         0.0809 
     93 H93        30.6119   26.5766   -0.4097 H         1 UNK         0.0809 
     94 H94        27.9624   26.1299   -0.8604 H         1 UNK         0.2990 
     95 H95        24.6664   26.5230    0.4913 H         1 UNK         0.0690 
     96 H96        24.4856   27.0838   -1.9066 H         1 UNK         0.0788 
     97 H97        24.1749   25.3720   -1.6649 H         1 UNK         0.0788 
     98 H98        25.7213   25.9061   -2.3207 H         1 UNK         0.0788 
     99 H99        26.5207   24.4215   -0.4571 H         1 UNK         0.2993 
    100 H100       27.4185   23.4630    2.8279 H         1 UNK         0.0949 
    101 H101       25.5451   21.8738    0.9913 H         1 UNK         0.0767 
    102 H102       26.5720   21.1999    2.2588 H         1 UNK         0.0767 
    103 H103       25.2346   22.2564    2.6793 H         1 UNK         0.0767 
    104 H104       27.9103   22.2148    0.3093 H         1 UNK         0.3013 
    105 H105       27.0272   28.4227    2.4394 H         1 UNK         0.3121 
    106 H106       25.9970   29.9503    4.7811 H         1 UNK         0.0774 
    107 H107       24.5216   28.9115    2.3032 H         1 UNK         0.0815 
    108 H108       23.8058   29.7001    3.6985 H         1 UNK         0.0815 
    109 H109       24.5516   28.1189    3.8757 H         1 UNK         0.0815 
    110 H110       26.6336   30.1755    1.2573 H         1 UNK         0.2987 
    111 H111       25.8006   32.8873    0.9580 H         1 UNK         0.0949 
    112 H112       27.6360   31.1556   -0.7845 H         1 UNK         0.0806 
    113 H113       25.8825   31.2653   -0.9218 H         1 UNK         0.0806 
    114 H114       26.8822   32.6648   -1.2822 H         1 UNK         0.0806 
    115 H115       29.0297   31.4334    1.5381 H         1 UNK         0.3010 
    116 H116       30.2178   34.1490    1.9586 H         1 UNK         0.0829 
    117 H117       31.0711   32.9974   -0.1244 H         1 UNK         0.0813 
    118 H118       32.3292   33.1382    1.0915 H         1 UNK         0.0813 
    119 H119       31.5243   31.5954    0.8421 H         1 UNK         0.0813 
    120 H120       32.1516   33.9997    3.4077 H         1 UNK         0.3038 
    121 H121       31.4368   32.7697    5.9196 H         1 UNK         0.0769 
    122 H122       33.8736   34.4336    5.0969 H         1 UNK         0.0811 
    123 H123       33.4235   34.0199    6.7453 H         1 UNK         0.0811 
    124 H124       32.3766   35.0564    5.7926 H         1 UNK         0.0811 
    125 H125       31.5397   30.6243    4.6622 H         1 UNK         0.3204 
    126 H126       32.2293   28.5165    4.6399 H         1 UNK         0.0748 
    127 H127       33.7994   27.6448    6.2943 H         1 UNK         0.0771 
    128 H128       34.5374   29.2248    6.5213 H         1 UNK         0.0771 
    129 H129       32.8869   28.9266    7.0592 H         1 UNK         0.0771 
    130 H130       34.6285   27.1819    4.5060 H         1 UNK         0.2980 
    131 H131       35.4434   27.7336    1.7931 H         1 UNK         0.0545 
    132 H132       38.6926   29.1434    2.0793 H         1 UNK         0.3459 
    133 H133       37.5250   28.4008    1.0177 H         1 UNK         0.3459 
    134 H134       36.8862   25.7061    2.0710 H         1 UNK         0.0616 
    135 H135       36.4833   25.6316    3.7669 H         1 UNK         0.0616 
    136 H136       34.5756   24.5594    4.7257 H         1 UNK         0.0634 
    137 H137       35.0754   23.1346    3.8387 H         1 UNK         0.0634 
@<TRIPOS>BOND
     1    1    2 1    
     2    1   72 1    
     3    1   73 1    
     4    1   74 1    
     5    2    3 2    
     6    2    4 am   BACKBONE|DICT|INTERRES
     7    4    5 1    
     8    4   75 1    
     9    5    6 1    
    10    5   35 1    
    11    5   76 1    
    12    6    7 1    
    13    6   77 1    
    14    6   78 1    
    15    7    8 1    
    16    8    9 1    
    17    8   79 1    
    18    8   80 1    
    19    9   10 ar   
    20    9   14 ar   
    21   10   11 ar   
    22   10   81 1    
    23   11   12 ar   
    24   11   71 1    
    25   12   13 ar   
    26   12   82 1    
    27   13   14 ar   
    28   13   15 1    
    29   14   83 1    
    30   15   16 1    
    31   15   84 1    
    32   15   85 1    
    33   16   17 1    
    34   17   18 1    
    35   17   86 1    
    36   17   87 1    
    37   18   19 1    
    38   18   37 1    
    39   18   88 1    
    40   19   20 am   BACKBONE|DICT|INTERRES
    41   19   89 1    
    42   20   21 2    
    43   20   22 1    
    44   22   23 1    
    45   22   24 1    
    46   22   90 1    
    47   23   91 1    
    48   23   92 1    
    49   23   93 1    
    50   24   25 am   BACKBONE|DICT|INTERRES
    51   24   94 1    
    52   25   26 2    
    53   25   27 1    
    54   27   28 1    
    55   27   29 1    
    56   27   95 1    
    57   28   96 1    
    58   28   97 1    
    59   28   98 1    
    60   29   30 am   BACKBONE|DICT|INTERRES
    61   29   99 1    
    62   30   31 2    
    63   30   32 1    
    64   32   33 1    
    65   32   34 1    
    66   32  100 1    
    67   33  101 1    
    68   33  102 1    
    69   33  103 1    
    70   34   35 am   BACKBONE|DICT|INTERRES
    71   34  104 1    
    72   35   36 2    
    73   37   38 2    
    74   37   39 am   BACKBONE|DICT|INTERRES
    75   39   40 1    
    76   39  105 1    
    77   40   41 1    
    78   40   42 1    
    79   40  106 1    
    80   41  107 1    
    81   41  108 1    
    82   41  109 1    
    83   42   43 2    
    84   42   44 am   BACKBONE|DICT|INTERRES
    85   44   45 1    
    86   44  110 1    
    87   45   46 1    
    88   45   47 1    
    89   45  111 1    
    90   46  112 1    
    91   46  113 1    
    92   46  114 1    
    93   47   48 2    
    94   47   49 am   BACKBONE|DICT|INTERRES
    95   49   50 1    
    96   49  115 1    
    97   50   51 1    
    98   50   52 1    
    99   50  116 1    
   100   51  117 1    
   101   51  118 1    
   102   51  119 1    
   103   52   53 2    
   104   52   54 am   BACKBONE|DICT|INTERRES
   105   54   55 1    
   106   54  120 1    
   107   55   56 1    
   108   55   57 1    
   109   55  121 1    
   110   56  122 1    
   111   56  123 1    
   112   56  124 1    
   113   57   58 2    
   114   57   59 am   BACKBONE|DICT|INTERRES
   115   59   60 1    
   116   59  125 1    
   117   60   61 1    
   118   60   62 1    
   119   60  126 1    
   120   61  127 1    
   121   61  128 1    
   122   61  129 1    
   123   62   63 2    
   124   62   64 am   BACKBONE|DICT|INTERRES
   125   64   65 1    
   126   64  130 1    
   127   65   66 1    
   128   65   69 1    
   129   65  131 1    
   130   66   67 am   BACKBONE|DICT|INTERRES
   131   66   68 2    
   132   67  132 1    
   133   67  133 1    
   134   69   70 1    
   135   69  134 1    
   136   69  135 1    
   137   70   71 1    
   138   71  136 1    
   139   71  137 1    
@<TRIPOS>SUBSTRUCTURE
     1 UNK         1 GROUP             0       ****    0 ROOT    
