@<TRIPOS>MOLECULE
3R136
137   139    1
SMALL
USER_CHARGES


@<TRIPOS>ATOM
      1 CA         28.7742   19.3698    3.3902 C.3       0 UNK        -0.1979 
      2 C          28.1367   19.4682    2.0122 C.2       0 UNK         0.4864 
      3 O          27.1036   18.8440    1.7687 O.2       0 UNK        -0.5359 
      4 N          28.7431   20.2530    1.1107 N.am      1 UNK        -0.4318 
      5 CA         28.2754   20.4790   -0.2640 C.3       1 UNK         0.0824 
      6 C6         29.4249   20.9863   -1.1771 C.3       12 UNK        -0.0944 
      7 S7         29.9581   22.7015   -0.8467 S.3       12 UNK        -0.2672 
      8 C8         31.3545   22.4770    0.3017 C.3       12 UNK         0.0333 
      9 C9         31.4371   23.6718    1.2374 C.ar      12 UNK        -0.0807 
     10 C10        32.3973   24.6680    1.0474 C.ar      12 UNK        -0.0894 
     11 C11        32.3988   25.8237    1.8365 C.ar      12 UNK        -0.0804 
     12 C12        31.4301   25.9593    2.8452 C.ar      12 UNK        -0.0824 
     13 C13        30.4782   24.9562    3.0604 C.ar      12 UNK        -0.0762 
     14 C14        30.5014   23.8100    2.2626 C.ar      12 UNK        -0.0782 
     15 C15        29.4215   25.0921    4.1513 C.3       12 UNK         0.0230 
     16 S16        27.7331   24.8609    3.4934 S.3       12 UNK        -0.2608 
     17 C17        27.0587   26.5546    3.4335 C.3       12 UNK        -0.0989 
     18 CA         27.8642   27.5539    2.5680 C.3       5 UNK         0.0716 
     19 N          28.0970   27.0885    1.1923 N.am      5 UNK        -0.4135 
     20 C          28.9864   27.6398    0.3491 C.2       4 UNK         0.5031 
     21 O          29.6774   28.6137    0.6502 O.2       4 UNK        -0.5229 
     22 CA         29.0999   27.0739   -1.0776 C.3       4 UNK         0.0329 
     23 CB         30.4755   26.4403   -1.3167 C.3       4 UNK        -0.2001 
     24 N          28.0549   26.1051   -1.4158 N.am      4 UNK        -0.4303 
     25 C          26.8262   26.4460   -1.8252 C.2       3 UNK         0.5044 
     26 O          26.4387   27.6101   -1.9327 O.2       3 UNK        -0.5152 
     27 CA         25.8615   25.2927   -2.1485 C.3       3 UNK         0.0319 
     28 CB         26.1406   24.7310   -3.5518 C.3       3 UNK        -0.2001 
     29 N          25.8885   24.1976   -1.1741 N.am      3 UNK        -0.4354 
     30 C          25.6138   24.3100    0.1314 C.2       2 UNK         0.4964 
     31 O          25.3903   25.3843    0.6885 O.2       2 UNK        -0.5047 
     32 CA         25.5779   23.0174    0.9651 C.3       2 UNK         0.0288 
     33 CB         24.2230   22.2979    0.8155 C.3       2 UNK        -0.2113 
     34 N          26.7058   22.1023    0.7391 N.am      2 UNK        -0.4145 
     35 C          27.0135   21.3735   -0.3471 C.2       1 UNK         0.5006 
     36 O          26.3640   21.3984   -1.3945 O.2       1 UNK        -0.5103 
     37 C          27.2383   28.9652    2.6447 C.2       5 UNK         0.5055 
     38 O          27.2314   29.5581    3.7230 O.2       5 UNK        -0.5220 
     39 N          26.7915   29.5244    1.5103 N.am      6 UNK        -0.4450 
     40 CA         26.4683   30.9463    1.3575 C.3       6 UNK         0.0367 
     41 CB         25.9014   31.1823   -0.0514 C.3       6 UNK        -0.1929 
     42 C          27.6725   31.8787    1.6176 C.2       6 UNK         0.5070 
     43 O          27.4645   33.0395    1.9702 O.2       6 UNK        -0.5237 
     44 N          28.8985   31.3562    1.4649 N.am      7 UNK        -0.4739 
     45 CA         30.1603   32.0401    1.7437 C.3       7 UNK         0.0276 
     46 CB         31.0581   31.9364    0.4968 C.3       7 UNK        -0.1927 
     47 C          30.8628   31.4635    2.9881 C.2       7 UNK         0.5013 
     48 O          32.0755   31.6383    3.1157 O.2       7 UNK        -0.5193 
     49 N          30.1218   30.8049    3.8984 N.am      8 UNK        -0.4253 
     50 CA         30.6530   30.1116    5.0857 C.3       8 UNK         0.0242 
     51 CB         29.5104   29.4933    5.9063 C.3       8 UNK        -0.2000 
     52 C          31.5659   30.9502    6.0006 C.2       8 UNK         0.4948 
     53 O          32.4735   30.3904    6.6164 O.2       8 UNK        -0.5275 
     54 N          31.3457   32.2719    6.0402 N.am      9 UNK        -0.4246 
     55 CA         32.1973   33.2419    6.7341 C.3       9 UNK         0.0261 
     56 CB         31.5171   34.6203    6.7110 C.3       9 UNK        -0.1959 
     57 C          33.6268   33.3370    6.1633 C.2       9 UNK         0.5033 
     58 O          34.5466   33.6574    6.9176 O.2       9 UNK        -0.5390 
     59 N          33.7950   33.0566    4.8626 N.am      10 UNK        -0.4215 
     60 CA         35.0958   32.9599    4.1995 C.3       10 UNK         0.0240 
     61 CB         34.9631   33.3931    2.7297 C.3       10 UNK        -0.1982 
     62 C          35.6659   31.5361    4.2961 C.2       10 UNK         0.4970 
     63 O          36.8813   31.3903    4.4319 O.2       10 UNK        -0.4916 
     64 N          34.7927   30.5203    4.2253 N.am      11 UNK        -0.4279 
     65 CA         35.1495   29.0977    4.3639 C.3       11 UNK         0.1003 
     66 C          35.7138   28.7370    5.7657 C.2       11 UNK         0.5709 
     67 N          35.1306   29.2459    6.8443 N.am      11 UNK        -0.7358 
     68 O          36.6861   27.9934    5.8720 O.2       11 UNK        -0.4999 
     69 C69        33.9728   28.1523    4.0075 C.3       12 UNK        -0.0954 
     70 S70        33.2498   28.4957    2.3673 S.3       12 UNK        -0.2268 
     71 C71        33.4523   26.8912    1.5240 C.3       12 UNK         0.0203 
     72 H72        29.0363   18.3348    3.6086 H         1 UNK         0.0888 
     73 H73        29.6797   19.9716    3.4666 H         1 UNK         0.0888 
     74 H74        28.0746   19.7121    4.1524 H         1 UNK         0.0888 
     75 H75        29.5991   20.7234    1.3615 H         1 UNK         0.3017 
     76 H76        27.9701   19.5063   -0.6564 H         1 UNK         0.0873 
     77 H77        29.1074   20.9398   -2.2205 H         1 UNK         0.0745 
     78 H78        30.2857   20.3190   -1.1096 H         1 UNK         0.0745 
     79 H79        31.2349   21.5651    0.8864 H         1 UNK         0.0705 
     80 H80        32.2763   22.3599   -0.2701 H         1 UNK         0.0705 
     81 H81        33.1213   24.5643    0.2505 H         1 UNK         0.1334 
     82 H82        31.4021   26.8444    3.4629 H         1 UNK         0.1417 
     83 H83        29.7573   23.0413    2.4146 H         1 UNK         0.1562 
     84 H84        29.4990   26.0499    4.6674 H         1 UNK         0.0748 
     85 H85        29.6060   24.3261    4.9056 H         1 UNK         0.0748 
     86 H86        26.9886   26.9144    4.4622 H         1 UNK         0.0940 
     87 H87        26.0306   26.4881    3.0727 H         1 UNK         0.0940 
     88 H88        28.8503   27.6580    3.0238 H         1 UNK         0.0703 
     89 H89        27.5252   26.3154    0.8797 H         1 UNK         0.3081 
     90 H90        29.0168   27.9271   -1.7545 H         1 UNK         0.0719 
     91 H91        30.5990   25.5419   -0.7187 H         1 UNK         0.0809 
     92 H92        30.6123   26.1674   -2.3630 H         1 UNK         0.0809 
     93 H93        31.2805   27.1265   -1.0499 H         1 UNK         0.0809 
     94 H94        28.2923   25.1252   -1.3428 H         1 UNK         0.2990 
     95 H95        24.8502   25.7045   -2.1432 H         1 UNK         0.0690 
     96 H96        25.3932   23.9906   -3.8378 H         1 UNK         0.0788 
     97 H97        27.1209   24.2560   -3.6099 H         1 UNK         0.0788 
     98 H98        26.1149   25.5222   -4.3026 H         1 UNK         0.0788 
     99 H99        26.0550   23.2595   -1.5300 H         1 UNK         0.2993 
    100 H100       25.6586   23.3250    2.0086 H         1 UNK         0.0949 
    101 H101       23.4006   22.9584    1.0936 H         1 UNK         0.0767 
    102 H102       24.0417   21.9710   -0.2087 H         1 UNK         0.0767 
    103 H103       24.1676   21.4216    1.4617 H         1 UNK         0.0767 
    104 H104       27.3385   22.0200    1.5215 H         1 UNK         0.3013 
    105 H105       26.8084   28.9701    0.6658 H         1 UNK         0.3121 
    106 H106       25.6963   31.1953    2.0887 H         1 UNK         0.0774 
    107 H107       26.6265   30.9287   -0.8260 H         1 UNK         0.0815 
    108 H108       25.6267   32.2288   -0.1914 H         1 UNK         0.0815 
    109 H109       25.0042   30.5874   -0.2240 H         1 UNK         0.0815 
    110 H110       28.9915   30.3854    1.1755 H         1 UNK         0.2987 
    111 H111       29.9840   33.0983    1.9464 H         1 UNK         0.0949 
    112 H112       31.3348   30.9017    0.2885 H         1 UNK         0.0806 
    113 H113       30.5591   32.3351   -0.3864 H         1 UNK         0.0806 
    114 H114       31.9821   32.5012    0.6270 H         1 UNK         0.0806 
    115 H115       29.1281   30.7055    3.7285 H         1 UNK         0.3010 
    116 H116       31.2596   29.2911    4.7066 H         1 UNK         0.0829 
    117 H117       29.0334   28.6759    5.3678 H         1 UNK         0.0813 
    118 H118       29.8780   29.0742    6.8444 H         1 UNK         0.0813 
    119 H119       28.7453   30.2296    6.1548 H         1 UNK         0.0813 
    120 H120       30.5732   32.6412    5.5053 H         1 UNK         0.3038 
    121 H121       32.2837   32.9202    7.7741 H         1 UNK         0.0769 
    122 H122       31.3808   34.9870    5.6927 H         1 UNK         0.0811 
    123 H123       32.1159   35.3592    7.2456 H         1 UNK         0.0811 
    124 H124       30.5395   34.5897    7.1923 H         1 UNK         0.0811 
    125 H125       32.9955   32.7457    4.3153 H         1 UNK         0.3204 
    126 H126       35.8016   33.6379    4.6844 H         1 UNK         0.0748 
    127 H127       35.9338   33.3797    2.2324 H         1 UNK         0.0771 
    128 H128       34.3018   32.7332    2.1670 H         1 UNK         0.0771 
    129 H129       34.5716   34.4073    2.6494 H         1 UNK         0.0771 
    130 H130       33.8166   30.7221    4.0512 H         1 UNK         0.2980 
    131 H131       35.9473   28.9056    3.6438 H         1 UNK         0.0545 
    132 H132       35.4925   29.0205    7.7565 H         1 UNK         0.3459 
    133 H133       34.2772   29.7919    6.7570 H         1 UNK         0.3459 
    134 H134       34.3071   27.1138    4.0388 H         1 UNK         0.0616 
    135 H135       33.1855   28.2269    4.7564 H         1 UNK         0.0616 
    136 H136       33.4284   27.0906    0.4517 H         1 UNK         0.0634 
    137 H137       34.4455   26.4940    1.7372 H         1 UNK         0.0634 
@<TRIPOS>BOND
     1    1    2 1    
     2    1   72 1    
     3    1   73 1    
     4    1   74 1    
     5    2    3 2    
     6    2    4 am   BACKBONE|DICT|INTERRES
     7    4    5 1    
     8    4   75 1    
     9    5    6 1    
    10    5   35 1    
    11    5   76 1    
    12    6    7 1    
    13    6   77 1    
    14    6   78 1    
    15    7    8 1    
    16    8    9 1    
    17    8   79 1    
    18    8   80 1    
    19    9   10 ar   
    20    9   14 ar   
    21   10   11 ar   
    22   10   81 1    
    23   11   12 ar   
    24   11   71 1    
    25   12   13 ar   
    26   12   82 1    
    27   13   14 ar   
    28   13   15 1    
    29   14   83 1    
    30   15   16 1    
    31   15   84 1    
    32   15   85 1    
    33   16   17 1    
    34   17   18 1    
    35   17   86 1    
    36   17   87 1    
    37   18   19 1    
    38   18   37 1    
    39   18   88 1    
    40   19   20 am   BACKBONE|DICT|INTERRES
    41   19   89 1    
    42   20   21 2    
    43   20   22 1    
    44   22   23 1    
    45   22   24 1    
    46   22   90 1    
    47   23   91 1    
    48   23   92 1    
    49   23   93 1    
    50   24   25 am   BACKBONE|DICT|INTERRES
    51   24   94 1    
    52   25   26 2    
    53   25   27 1    
    54   27   28 1    
    55   27   29 1    
    56   27   95 1    
    57   28   96 1    
    58   28   97 1    
    59   28   98 1    
    60   29   30 am   BACKBONE|DICT|INTERRES
    61   29   99 1    
    62   30   31 2    
    63   30   32 1    
    64   32   33 1    
    65   32   34 1    
    66   32  100 1    
    67   33  101 1    
    68   33  102 1    
    69   33  103 1    
    70   34   35 am   BACKBONE|DICT|INTERRES
    71   34  104 1    
    72   35   36 2    
    73   37   38 2    
    74   37   39 am   BACKBONE|DICT|INTERRES
    75   39   40 1    
    76   39  105 1    
    77   40   41 1    
    78   40   42 1    
    79   40  106 1    
    80   41  107 1    
    81   41  108 1    
    82   41  109 1    
    83   42   43 2    
    84   42   44 am   BACKBONE|DICT|INTERRES
    85   44   45 1    
    86   44  110 1    
    87   45   46 1    
    88   45   47 1    
    89   45  111 1    
    90   46  112 1    
    91   46  113 1    
    92   46  114 1    
    93   47   48 2    
    94   47   49 am   BACKBONE|DICT|INTERRES
    95   49   50 1    
    96   49  115 1    
    97   50   51 1    
    98   50   52 1    
    99   50  116 1    
   100   51  117 1    
   101   51  118 1    
   102   51  119 1    
   103   52   53 2    
   104   52   54 am   BACKBONE|DICT|INTERRES
   105   54   55 1    
   106   54  120 1    
   107   55   56 1    
   108   55   57 1    
   109   55  121 1    
   110   56  122 1    
   111   56  123 1    
   112   56  124 1    
   113   57   58 2    
   114   57   59 am   BACKBONE|DICT|INTERRES
   115   59   60 1    
   116   59  125 1    
   117   60   61 1    
   118   60   62 1    
   119   60  126 1    
   120   61  127 1    
   121   61  128 1    
   122   61  129 1    
   123   62   63 2    
   124   62   64 am   BACKBONE|DICT|INTERRES
   125   64   65 1    
   126   64  130 1    
   127   65   66 1    
   128   65   69 1    
   129   65  131 1    
   130   66   67 am   BACKBONE|DICT|INTERRES
   131   66   68 2    
   132   67  132 1    
   133   67  133 1    
   134   69   70 1    
   135   69  134 1    
   136   69  135 1    
   137   70   71 1    
   138   71  136 1    
   139   71  137 1    
@<TRIPOS>SUBSTRUCTURE
     1 UNK         1 GROUP             0       ****    0 ROOT    
