@<TRIPOS>MOLECULE
3R136
137   139    1
SMALL
USER_CHARGES


@<TRIPOS>ATOM
      1 CA         29.6433   23.4208   -0.7514 C.3       0 UNK        -0.1979 
      2 C          28.7426   24.2565    0.1433 C.2       0 UNK         0.4864 
      3 O          27.9824   25.0851   -0.3601 O.2       0 UNK        -0.5359 
      4 N          28.8163   24.0339    1.4632 N.am      1 UNK        -0.4318 
      5 CA         28.1477   24.7878    2.5368 C.3       1 UNK         0.0824 
      6 C6         28.4299   24.1771    3.9383 C.3       12 UNK        -0.0944 
      7 S7         30.1524   23.6355    4.2146 S.3       12 UNK        -0.2672 
      8 C8         30.9827   25.1667    4.7403 C.3       12 UNK         0.0333 
      9 C9         32.1395   25.4807    3.8060 C.ar      12 UNK        -0.0807 
     10 C10        33.3482   24.7914    3.9332 C.ar      12 UNK        -0.0894 
     11 C11        34.4047   25.0430    3.0535 C.ar      12 UNK        -0.0804 
     12 C12        34.2376   25.9791    2.0292 C.ar      12 UNK        -0.0824 
     13 C13        33.0390   26.6893    1.9002 C.ar      12 UNK        -0.0762 
     14 C14        31.9983   26.4422    2.8029 C.ar      12 UNK        -0.0782 
     15 C15        32.8884   27.7319    0.7985 C.3       12 UNK         0.0230 
     16 S16        31.5985   27.2904   -0.4116 S.3       12 UNK        -0.2608 
     17 C17        30.0907   27.9276    0.3935 C.3       12 UNK        -0.0989 
     18 CA         29.1172   28.5789   -0.6137 C.3       5 UNK         0.0716 
     19 N          28.5643   27.5875   -1.5291 N.am      5 UNK        -0.4135 
     20 C          28.3521   27.7682   -2.8345 C.2       4 UNK         0.5031 
     21 O          28.7085   28.7640   -3.4666 O.2       4 UNK        -0.5229 
     22 CA         27.5795   26.6492   -3.5519 C.3       4 UNK         0.0329 
     23 CB         28.5255   25.5108   -3.9657 C.3       4 UNK        -0.2001 
     24 N          26.4773   26.1104   -2.7456 N.am      4 UNK        -0.4303 
     25 C          25.3760   26.8048   -2.4239 C.2       3 UNK         0.5044 
     26 O          25.1823   27.9740   -2.7599 O.2       3 UNK        -0.5152 
     27 CA         24.2769   26.0691   -1.6496 C.3       3 UNK         0.0319 
     28 CB         23.4477   25.1985   -2.6182 C.3       3 UNK        -0.2001 
     29 N          24.7745   25.2689   -0.5220 N.am      3 UNK        -0.4354 
     30 C          23.9703   24.8314    0.4614 C.2       2 UNK         0.4964 
     31 O          22.7765   25.1272    0.5415 O.2       2 UNK        -0.5047 
     32 CA         24.5420   23.8751    1.5226 C.3       2 UNK         0.0288 
     33 CB         24.1737   22.4217    1.1788 C.3       2 UNK        -0.2113 
     34 N          25.9872   23.9603    1.7110 N.am      2 UNK        -0.4145 
     35 C          26.6213   24.9491    2.3554 C.2       1 UNK         0.5006 
     36 O          26.0517   25.9350    2.8230 O.2       1 UNK        -0.5103 
     37 C          27.9495   29.2370    0.1394 C.2       5 UNK         0.5055 
     38 O          26.9545   28.5709    0.4386 O.2       5 UNK        -0.5220 
     39 N          28.1133   30.5190    0.4902 N.am      6 UNK        -0.4450 
     40 CA         27.1739   31.2888    1.3093 C.3       6 UNK         0.0367 
     41 CB         27.4136   32.7927    1.0791 C.3       6 UNK        -0.1929 
     42 C          27.2814   30.8960    2.7954 C.2       6 UNK         0.5070 
     43 O          27.8448   31.6462    3.5943 O.2       6 UNK        -0.5237 
     44 N          26.7732   29.7009    3.1229 N.am      7 UNK        -0.4739 
     45 CA         26.6941   29.0479    4.4380 C.3       7 UNK         0.0276 
     46 CB         25.8728   29.8839    5.4396 C.3       7 UNK        -0.1927 
     47 C          28.0514   28.6391    5.0358 C.2       7 UNK         0.5013 
     48 O          28.2151   27.4805    5.4144 O.2       7 UNK        -0.5193 
     49 N          28.9930   29.5832    5.1148 N.am      8 UNK        -0.4253 
     50 CA         30.3304   29.4148    5.6811 C.3       8 UNK         0.0242 
     51 CB         30.2660   29.3852    7.2228 C.3       8 UNK        -0.2000 
     52 C          31.2492   30.5174    5.1378 C.2       8 UNK         0.4948 
     53 O          31.8751   31.2439    5.9110 O.2       8 UNK        -0.5275 
     54 N          31.2934   30.6410    3.8038 N.am      9 UNK        -0.4246 
     55 CA         32.0808   31.6502    3.0846 C.3       9 UNK         0.0261 
     56 CB         31.5717   31.7506    1.6368 C.3       9 UNK        -0.1959 
     57 C          33.6044   31.4119    3.1157 C.2       9 UNK         0.5033 
     58 O          34.3580   32.3269    2.7800 O.2       9 UNK        -0.5390 
     59 N          34.0335   30.2089    3.5109 N.am      10 UNK        -0.4215 
     60 CA         35.4221   29.8048    3.6975 C.3       10 UNK         0.0240 
     61 CB         36.0429   29.3982    2.3465 C.3       10 UNK        -0.1982 
     62 C          35.4565   28.6570    4.7165 C.2       10 UNK         0.4970 
     63 O          34.3978   28.1811    5.1358 O.2       10 UNK        -0.4916 
     64 N          36.6747   28.2482    5.0923 N.am      11 UNK        -0.4279 
     65 CA         36.9799   27.1418    6.0204 C.3       11 UNK         0.1003 
     66 C          36.5869   27.4039    7.5073 C.2       11 UNK         0.5709 
     67 N          36.2966   28.6358    7.9090 N.am      11 UNK        -0.7358 
     68 O          36.5806   26.4849    8.3235 O.2       11 UNK        -0.4999 
     69 C69        36.4926   25.7521    5.5122 C.3       12 UNK        -0.0954 
     70 S70        37.0624   25.3660    3.8197 S.3       12 UNK        -0.2268 
     71 C71        35.7227   24.2955    3.2033 C.3       12 UNK         0.0203 
     72 H72        29.0545   22.9297   -1.5255 H         1 UNK         0.0888 
     73 H73        30.3817   24.0606   -1.2341 H         1 UNK         0.0888 
     74 H74        30.1753   22.6526   -0.1906 H         1 UNK         0.0888 
     75 H75        29.4673   23.3383    1.8017 H         1 UNK         0.3017 
     76 H76        28.5706   25.7929    2.5220 H         1 UNK         0.0873 
     77 H77        27.8090   23.2924    4.0951 H         1 UNK         0.0745 
     78 H78        28.1453   24.8773    4.7258 H         1 UNK         0.0745 
     79 H79        31.3500   25.0458    5.7604 H         1 UNK         0.0705 
     80 H80        30.2765   25.9961    4.7649 H         1 UNK         0.0705 
     81 H81        33.4616   24.0534    4.7155 H         1 UNK         0.1334 
     82 H82        35.0534   26.1634    1.3437 H         1 UNK         0.1417 
     83 H83        31.0683   26.9817    2.7220 H         1 UNK         0.1562 
     84 H84        33.8267   27.8415    0.2529 H         1 UNK         0.0748 
     85 H85        32.6891   28.7071    1.2402 H         1 UNK         0.0748 
     86 H86        30.3746   28.6489    1.1605 H         1 UNK         0.0940 
     87 H87        29.6033   27.1015    0.9111 H         1 UNK         0.0940 
     88 H88        29.6512   29.3503   -1.1730 H         1 UNK         0.0703 
     89 H89        28.2144   26.7345   -1.0957 H         1 UNK         0.3081 
     90 H90        27.1497   27.0764   -4.4605 H         1 UNK         0.0719 
     91 H91        29.3334   25.8863   -4.5953 H         1 UNK         0.0809 
     92 H92        28.9842   25.0330   -3.1006 H         1 UNK         0.0809 
     93 H93        28.0008   24.7441   -4.5359 H         1 UNK         0.0809 
     94 H94        26.5763   25.1597   -2.4212 H         1 UNK         0.2990 
     95 H95        23.6220   26.8449   -1.2458 H         1 UNK         0.0690 
     96 H96        23.1237   25.7758   -3.4855 H         1 UNK         0.0788 
     97 H97        22.5470   24.8101   -2.1432 H         1 UNK         0.0788 
     98 H98        24.0226   24.3487   -2.9878 H         1 UNK         0.0788 
     99 H99        25.7699   25.0791   -0.4782 H         1 UNK         0.2993 
    100 H100       24.0641   24.1295    2.4716 H         1 UNK         0.0949 
    101 H101       23.0945   22.3080    1.0649 H         1 UNK         0.0767 
    102 H102       24.6354   22.0983    0.2448 H         1 UNK         0.0767 
    103 H103       24.4874   21.7352    1.9657 H         1 UNK         0.0767 
    104 H104       26.5413   23.1972    1.3508 H         1 UNK         0.3013 
    105 H105       28.9569   30.9974    0.2102 H         1 UNK         0.3121 
    106 H106       26.1558   31.0656    0.9819 H         1 UNK         0.0774 
    107 H107       26.7086   33.3896    1.6594 H         1 UNK         0.0815 
    108 H108       28.4162   33.1006    1.3758 H         1 UNK         0.0815 
    109 H109       27.2759   33.0610    0.0316 H         1 UNK         0.0815 
    110 H110       26.4435   29.1322    2.3472 H         1 UNK         0.2987 
    111 H111       26.1424   28.1221    4.2701 H         1 UNK         0.0949 
    112 H112       25.7485   29.3476    6.3813 H         1 UNK         0.0806 
    113 H113       24.8755   30.0951    5.0539 H         1 UNK         0.0806 
    114 H114       26.3506   30.8360    5.6720 H         1 UNK         0.0806 
    115 H115       28.7616   30.5048    4.7446 H         1 UNK         0.3010 
    116 H116       30.7434   28.4639    5.3375 H         1 UNK         0.0829 
    117 H117       29.6607   28.5532    7.5826 H         1 UNK         0.0813 
    118 H118       31.2613   29.2660    7.6532 H         1 UNK         0.0813 
    119 H119       29.8420   30.3064    7.6239 H         1 UNK         0.0813 
    120 H120       30.7259   30.0220    3.2460 H         1 UNK         0.3038 
    121 H121       31.9040   32.6142    3.5669 H         1 UNK         0.0769 
    122 H122       30.5146   32.0099    1.6120 H         1 UNK         0.0811 
    123 H123       32.1047   32.5302    1.0905 H         1 UNK         0.0811 
    124 H124       31.7079   30.8207    1.0863 H         1 UNK         0.0811 
    125 H125       33.3670   29.5279    3.8536 H         1 UNK         0.3204 
    126 H126       35.9814   30.6427    4.1192 H         1 UNK         0.0748 
    127 H127       37.0977   29.1434    2.4535 H         1 UNK         0.0771 
    128 H128       35.5420   28.5308    1.9205 H         1 UNK         0.0771 
    129 H129       35.9823   30.2085    1.6199 H         1 UNK         0.0771 
    130 H130       37.4815   28.7146    4.7045 H         1 UNK         0.2980 
    131 H131       38.0691   27.0968    6.0436 H         1 UNK         0.0545 
    132 H132       36.3062   29.4025    7.2565 H         1 UNK         0.3459 
    133 H133       36.0565   28.7956    8.8745 H         1 UNK         0.3459 
    134 H134       36.8575   24.9566    6.1637 H         1 UNK         0.0616 
    135 H135       35.4050   25.7027    5.5581 H         1 UNK         0.0616 
    136 H136       36.0159   23.8891    2.2344 H         1 UNK         0.0634 
    137 H137       35.6126   23.4412    3.8730 H         1 UNK         0.0634 
@<TRIPOS>BOND
     1    1    2 1    
     2    1   72 1    
     3    1   73 1    
     4    1   74 1    
     5    2    3 2    
     6    2    4 am   BACKBONE|DICT|INTERRES
     7    4    5 1    
     8    4   75 1    
     9    5    6 1    
    10    5   35 1    
    11    5   76 1    
    12    6    7 1    
    13    6   77 1    
    14    6   78 1    
    15    7    8 1    
    16    8    9 1    
    17    8   79 1    
    18    8   80 1    
    19    9   10 ar   
    20    9   14 ar   
    21   10   11 ar   
    22   10   81 1    
    23   11   12 ar   
    24   11   71 1    
    25   12   13 ar   
    26   12   82 1    
    27   13   14 ar   
    28   13   15 1    
    29   14   83 1    
    30   15   16 1    
    31   15   84 1    
    32   15   85 1    
    33   16   17 1    
    34   17   18 1    
    35   17   86 1    
    36   17   87 1    
    37   18   19 1    
    38   18   37 1    
    39   18   88 1    
    40   19   20 am   BACKBONE|DICT|INTERRES
    41   19   89 1    
    42   20   21 2    
    43   20   22 1    
    44   22   23 1    
    45   22   24 1    
    46   22   90 1    
    47   23   91 1    
    48   23   92 1    
    49   23   93 1    
    50   24   25 am   BACKBONE|DICT|INTERRES
    51   24   94 1    
    52   25   26 2    
    53   25   27 1    
    54   27   28 1    
    55   27   29 1    
    56   27   95 1    
    57   28   96 1    
    58   28   97 1    
    59   28   98 1    
    60   29   30 am   BACKBONE|DICT|INTERRES
    61   29   99 1    
    62   30   31 2    
    63   30   32 1    
    64   32   33 1    
    65   32   34 1    
    66   32  100 1    
    67   33  101 1    
    68   33  102 1    
    69   33  103 1    
    70   34   35 am   BACKBONE|DICT|INTERRES
    71   34  104 1    
    72   35   36 2    
    73   37   38 2    
    74   37   39 am   BACKBONE|DICT|INTERRES
    75   39   40 1    
    76   39  105 1    
    77   40   41 1    
    78   40   42 1    
    79   40  106 1    
    80   41  107 1    
    81   41  108 1    
    82   41  109 1    
    83   42   43 2    
    84   42   44 am   BACKBONE|DICT|INTERRES
    85   44   45 1    
    86   44  110 1    
    87   45   46 1    
    88   45   47 1    
    89   45  111 1    
    90   46  112 1    
    91   46  113 1    
    92   46  114 1    
    93   47   48 2    
    94   47   49 am   BACKBONE|DICT|INTERRES
    95   49   50 1    
    96   49  115 1    
    97   50   51 1    
    98   50   52 1    
    99   50  116 1    
   100   51  117 1    
   101   51  118 1    
   102   51  119 1    
   103   52   53 2    
   104   52   54 am   BACKBONE|DICT|INTERRES
   105   54   55 1    
   106   54  120 1    
   107   55   56 1    
   108   55   57 1    
   109   55  121 1    
   110   56  122 1    
   111   56  123 1    
   112   56  124 1    
   113   57   58 2    
   114   57   59 am   BACKBONE|DICT|INTERRES
   115   59   60 1    
   116   59  125 1    
   117   60   61 1    
   118   60   62 1    
   119   60  126 1    
   120   61  127 1    
   121   61  128 1    
   122   61  129 1    
   123   62   63 2    
   124   62   64 am   BACKBONE|DICT|INTERRES
   125   64   65 1    
   126   64  130 1    
   127   65   66 1    
   128   65   69 1    
   129   65  131 1    
   130   66   67 am   BACKBONE|DICT|INTERRES
   131   66   68 2    
   132   67  132 1    
   133   67  133 1    
   134   69   70 1    
   135   69  134 1    
   136   69  135 1    
   137   70   71 1    
   138   71  136 1    
   139   71  137 1    
@<TRIPOS>SUBSTRUCTURE
     1 UNK         1 GROUP             0       ****    0 ROOT    
