@<TRIPOS>MOLECULE
3R136
137   139    1
SMALL
USER_CHARGES


@<TRIPOS>ATOM
      1 CA         30.1696   20.4000    4.2338 C.3       0 UNK        -0.1979 
      2 C          30.4311   21.8472    3.8241 C.2       0 UNK         0.4864 
      3 O          30.7872   22.6592    4.6764 O.2       0 UNK        -0.5359 
      4 N          30.2873   22.2174    2.5443 N.am      1 UNK        -0.4318 
      5 CA         29.7981   21.3986    1.4289 C.3       1 UNK         0.0824 
      6 C6         30.3237   21.9342    0.0688 C.3       12 UNK        -0.0944 
      7 S7         29.8006   23.6412   -0.3117 S.3       12 UNK        -0.2672 
      8 C8         31.3440   24.5700   -0.0628 C.3       12 UNK         0.0333 
      9 C9         31.0796   26.0618    0.0876 C.ar      12 UNK        -0.0807 
     10 C10        31.2412   26.6831    1.3303 C.ar      12 UNK        -0.0894 
     11 C11        31.0366   28.0597    1.4700 C.ar      12 UNK        -0.0804 
     12 C12        30.6823   28.8167    0.3506 C.ar      12 UNK        -0.0824 
     13 C13        30.4927   28.2058   -0.8930 C.ar      12 UNK        -0.0762 
     14 C14        30.6942   26.8273   -1.0182 C.ar      12 UNK        -0.0782 
     15 C15        30.1032   29.0389   -2.1078 C.3       12 UNK         0.0230 
     16 S16        28.2955   29.1476   -2.3266 S.3       12 UNK        -0.2608 
     17 C17        27.8093   30.2307   -0.9365 C.3       12 UNK        -0.0989 
     18 CA         26.9406   29.5301    0.1450 C.3       5 UNK         0.0716 
     19 N          27.4214   28.1860    0.4847 N.am      5 UNK        -0.4135 
     20 C          26.6741   27.2320    1.0526 C.2       4 UNK         0.5031 
     21 O          25.5179   27.3988    1.4474 O.2       4 UNK        -0.5229 
     22 CA         27.3330   25.8518    1.1987 C.3       4 UNK         0.0329 
     23 CB         27.5618   25.5019    2.6769 C.3       4 UNK        -0.2001 
     24 N          26.5462   24.7884    0.5702 N.am      4 UNK        -0.4303 
     25 C          26.2258   24.7222   -0.7304 C.2       3 UNK         0.5044 
     26 O          26.5784   25.5520   -1.5699 O.2       3 UNK        -0.5152 
     27 CA         25.4027   23.4976   -1.1597 C.3       3 UNK         0.0319 
     28 CB         25.2212   23.3906   -2.6863 C.3       3 UNK        -0.2001 
     29 N          26.0430   22.2809   -0.6621 N.am      3 UNK        -0.4354 
     30 C          25.4217   21.2838   -0.0191 C.2       2 UNK         0.4964 
     31 O          24.2093   21.2612    0.1987 O.2       2 UNK        -0.5047 
     32 CA         26.2863   20.1031    0.4680 C.3       2 UNK         0.0288 
     33 CB         26.0998   18.8875   -0.4558 C.3       2 UNK        -0.2113 
     34 N          27.7207   20.3957    0.5860 N.am      2 UNK        -0.4145 
     35 C          28.2573   21.2603    1.4591 C.2       1 UNK         0.5006 
     36 O          27.5839   21.9270    2.2495 O.2       1 UNK        -0.5103 
     37 C          26.8070   30.4473    1.3788 C.2       5 UNK         0.5055 
     38 O          26.0861   31.4428    1.3021 O.2       5 UNK        -0.5220 
     39 N          27.5303   30.1231    2.4655 N.am      6 UNK        -0.4450 
     40 CA         27.6619   30.8984    3.7085 C.3       6 UNK         0.0367 
     41 CB         26.3183   30.9673    4.4647 C.3       6 UNK        -0.1929 
     42 C          28.3055   32.2842    3.4891 C.2       6 UNK         0.5070 
     43 O          27.9503   33.2452    4.1733 O.2       6 UNK        -0.5237 
     44 N          29.2379   32.3624    2.5304 N.am      7 UNK        -0.4739 
     45 CA         29.8881   33.5962    2.0846 C.3       7 UNK         0.0276 
     46 CB         29.0451   34.2457    0.9686 C.3       7 UNK        -0.1927 
     47 C          31.3451   33.3388    1.6629 C.2       7 UNK         0.5013 
     48 O          31.8157   33.9295    0.6893 O.2       7 UNK        -0.5193 
     49 N          32.0379   32.4603    2.3963 N.am      8 UNK        -0.4253 
     50 CA         33.4544   32.1443    2.2255 C.3       8 UNK         0.0242 
     51 CB         33.6517   31.1190    1.0926 C.3       8 UNK        -0.2000 
     52 C          33.9912   31.6130    3.5579 C.2       8 UNK         0.4948 
     53 O          33.2077   31.1178    4.3731 O.2       8 UNK        -0.5275 
     54 N          35.3159   31.7001    3.7436 N.am      9 UNK        -0.4246 
     55 CA         36.0334   31.3565    4.9800 C.3       9 UNK         0.0261 
     56 CB         37.5323   31.6427    4.7948 C.3       9 UNK        -0.1959 
     57 C          35.8225   29.9165    5.4816 C.2       9 UNK         0.5033 
     58 O          35.8569   29.6921    6.6924 O.2       9 UNK        -0.5390 
     59 N          35.5599   28.9797    4.5587 N.am      10 UNK        -0.4215 
     60 CA         35.2122   27.5828    4.8440 C.3       10 UNK         0.0240 
     61 CB         35.0983   26.8120    3.5176 C.3       10 UNK        -0.1982 
     62 C          33.9247   27.4100    5.6751 C.2       10 UNK         0.4970 
     63 O          33.7824   26.3889    6.3484 O.2       10 UNK        -0.4916 
     64 N          33.0280   28.4023    5.6210 N.am      11 UNK        -0.4279 
     65 CA         31.7835   28.4676    6.3961 C.3       11 UNK         0.1003 
     66 C          31.9536   29.1960    7.7623 C.2       11 UNK         0.5709 
     67 N          33.1383   29.6705    8.1345 N.am      11 UNK        -0.7358 
     68 O          30.9908   29.3172    8.5161 O.2       11 UNK        -0.4999 
     69 C69        30.6351   29.0817    5.5508 C.3       12 UNK        -0.0954 
     70 S70        30.1842   28.0473    4.1162 S.3       12 UNK        -0.2268 
     71 C71        31.2484   28.7398    2.8150 C.3       12 UNK         0.0203 
     72 H72        30.8442   19.7208    3.7144 H         1 UNK         0.0888 
     73 H73        30.3318   20.2712    5.3038 H         1 UNK         0.0888 
     74 H74        29.1415   20.1113    4.0208 H         1 UNK         0.0888 
     75 H75        30.4214   23.1902    2.3143 H         1 UNK         0.3017 
     76 H76        30.2013   20.3911    1.5446 H         1 UNK         0.0873 
     77 H77        31.4137   21.8820    0.0546 H         1 UNK         0.0745 
     78 H78        30.0019   21.2915   -0.7523 H         1 UNK         0.0745 
     79 H79        31.8628   24.1880    0.8177 H         1 UNK         0.0705 
     80 H80        32.0083   24.3975   -0.9108 H         1 UNK         0.0705 
     81 H81        31.5370   26.1000    2.1919 H         1 UNK         0.1334 
     82 H82        30.5684   29.8866    0.4452 H         1 UNK         0.1417 
     83 H83        30.5594   26.3479   -1.9787 H         1 UNK         0.1562 
     84 H84        30.5353   28.5984   -3.0077 H         1 UNK         0.0748 
     85 H85        30.5258   30.0424   -2.0352 H         1 UNK         0.0748 
     86 H86        27.2511   31.0691   -1.3582 H         1 UNK         0.0940 
     87 H87        28.7012   30.6819   -0.5028 H         1 UNK         0.0940 
     88 H88        25.9373   29.4139   -0.2714 H         1 UNK         0.0703 
     89 H89        28.3433   27.9481    0.1431 H         1 UNK         0.3081 
     90 H90        28.3032   25.8823    0.7034 H         1 UNK         0.0719 
     91 H91        26.6203   25.3706    3.2115 H         1 UNK         0.0809 
     92 H92        28.1401   24.5837    2.7816 H         1 UNK         0.0809 
     93 H93        28.1151   26.2900    3.1846 H         1 UNK         0.0809 
     94 H94        26.2309   24.0462    1.1788 H         1 UNK         0.2990 
     95 H95        24.4160   23.6207   -0.7081 H         1 UNK         0.0690 
     96 H96        24.6089   22.5288   -2.9520 H         1 UNK         0.0788 
     97 H97        26.1788   23.2928   -3.1993 H         1 UNK         0.0788 
     98 H98        24.7239   24.2758   -3.0849 H         1 UNK         0.0788 
     99 H99        27.0470   22.2346   -0.7718 H         1 UNK         0.2993 
    100 H100       25.9217   19.8349    1.4622 H         1 UNK         0.0949 
    101 H101       26.6241   18.0118   -0.0721 H         1 UNK         0.0767 
    102 H102       25.0457   18.6183   -0.5405 H         1 UNK         0.0767 
    103 H103       26.4670   19.0863   -1.4636 H         1 UNK         0.0767 
    104 H104       28.3323   19.8825   -0.0330 H         1 UNK         0.3013 
    105 H105       28.0713   29.2706    2.4261 H         1 UNK         0.3121 
    106 H106       28.3552   30.3485    4.3428 H         1 UNK         0.0774 
    107 H107       26.4485   31.4112    5.4524 H         1 UNK         0.0815 
    108 H108       25.5828   31.5717    3.9331 H         1 UNK         0.0815 
    109 H109       25.8946   29.9739    4.6108 H         1 UNK         0.0815 
    110 H110       29.4796   31.5244    2.0240 H         1 UNK         0.2987 
    111 H111       29.9425   34.2973    2.9201 H         1 UNK         0.0949 
    112 H112       28.9808   33.6036    0.0897 H         1 UNK         0.0806 
    113 H113       28.0292   34.4506    1.3070 H         1 UNK         0.0806 
    114 H114       29.4752   35.1963    0.6511 H         1 UNK         0.0806 
    115 H115       31.6240   32.0602    3.2297 H         1 UNK         0.3010 
    116 H116       33.9930   33.0631    1.9827 H         1 UNK         0.0829 
    117 H117       33.2320   31.4766    0.1524 H         1 UNK         0.0813 
    118 H118       34.7110   30.9287    0.9173 H         1 UNK         0.0813 
    119 H119       33.1863   30.1618    1.3215 H         1 UNK         0.0813 
    120 H120       35.8754   32.1040    3.0056 H         1 UNK         0.3038 
    121 H121       35.6558   32.0200    5.7607 H         1 UNK         0.0769 
    122 H122       37.9637   31.0386    3.9958 H         1 UNK         0.0811 
    123 H123       38.0880   31.4205    5.7071 H         1 UNK         0.0811 
    124 H124       37.7113   32.6917    4.5584 H         1 UNK         0.0811 
    125 H125       35.5578   29.2610    3.5893 H         1 UNK         0.3204 
    126 H126       36.0311   27.1519    5.4238 H         1 UNK         0.0748 
    127 H127       36.0350   26.8391    2.9605 H         1 UNK         0.0771 
    128 H128       34.8609   25.7621    3.6953 H         1 UNK         0.0771 
    129 H129       34.3142   27.2179    2.8773 H         1 UNK         0.0771 
    130 H130       33.2404   29.2374    5.0854 H         1 UNK         0.2980 
    131 H131       31.4813   27.4510    6.6540 H         1 UNK         0.0545 
    132 H132       33.2212   30.1300    9.0271 H         1 UNK         0.3459 
    133 H133       33.9553   29.5701    7.5443 H         1 UNK         0.3459 
    134 H134       30.8881   30.0892    5.2180 H         1 UNK         0.0616 
    135 H135       29.7320   29.1832    6.1551 H         1 UNK         0.0616 
    136 H136       31.0556   29.8098    2.7434 H         1 UNK         0.0634 
    137 H137       32.2948   28.6300    3.0936 H         1 UNK         0.0634 
@<TRIPOS>BOND
     1    1    2 1    
     2    1   72 1    
     3    1   73 1    
     4    1   74 1    
     5    2    3 2    
     6    2    4 am   BACKBONE|DICT|INTERRES
     7    4    5 1    
     8    4   75 1    
     9    5    6 1    
    10    5   35 1    
    11    5   76 1    
    12    6    7 1    
    13    6   77 1    
    14    6   78 1    
    15    7    8 1    
    16    8    9 1    
    17    8   79 1    
    18    8   80 1    
    19    9   10 ar   
    20    9   14 ar   
    21   10   11 ar   
    22   10   81 1    
    23   11   12 ar   
    24   11   71 1    
    25   12   13 ar   
    26   12   82 1    
    27   13   14 ar   
    28   13   15 1    
    29   14   83 1    
    30   15   16 1    
    31   15   84 1    
    32   15   85 1    
    33   16   17 1    
    34   17   18 1    
    35   17   86 1    
    36   17   87 1    
    37   18   19 1    
    38   18   37 1    
    39   18   88 1    
    40   19   20 am   BACKBONE|DICT|INTERRES
    41   19   89 1    
    42   20   21 2    
    43   20   22 1    
    44   22   23 1    
    45   22   24 1    
    46   22   90 1    
    47   23   91 1    
    48   23   92 1    
    49   23   93 1    
    50   24   25 am   BACKBONE|DICT|INTERRES
    51   24   94 1    
    52   25   26 2    
    53   25   27 1    
    54   27   28 1    
    55   27   29 1    
    56   27   95 1    
    57   28   96 1    
    58   28   97 1    
    59   28   98 1    
    60   29   30 am   BACKBONE|DICT|INTERRES
    61   29   99 1    
    62   30   31 2    
    63   30   32 1    
    64   32   33 1    
    65   32   34 1    
    66   32  100 1    
    67   33  101 1    
    68   33  102 1    
    69   33  103 1    
    70   34   35 am   BACKBONE|DICT|INTERRES
    71   34  104 1    
    72   35   36 2    
    73   37   38 2    
    74   37   39 am   BACKBONE|DICT|INTERRES
    75   39   40 1    
    76   39  105 1    
    77   40   41 1    
    78   40   42 1    
    79   40  106 1    
    80   41  107 1    
    81   41  108 1    
    82   41  109 1    
    83   42   43 2    
    84   42   44 am   BACKBONE|DICT|INTERRES
    85   44   45 1    
    86   44  110 1    
    87   45   46 1    
    88   45   47 1    
    89   45  111 1    
    90   46  112 1    
    91   46  113 1    
    92   46  114 1    
    93   47   48 2    
    94   47   49 am   BACKBONE|DICT|INTERRES
    95   49   50 1    
    96   49  115 1    
    97   50   51 1    
    98   50   52 1    
    99   50  116 1    
   100   51  117 1    
   101   51  118 1    
   102   51  119 1    
   103   52   53 2    
   104   52   54 am   BACKBONE|DICT|INTERRES
   105   54   55 1    
   106   54  120 1    
   107   55   56 1    
   108   55   57 1    
   109   55  121 1    
   110   56  122 1    
   111   56  123 1    
   112   56  124 1    
   113   57   58 2    
   114   57   59 am   BACKBONE|DICT|INTERRES
   115   59   60 1    
   116   59  125 1    
   117   60   61 1    
   118   60   62 1    
   119   60  126 1    
   120   61  127 1    
   121   61  128 1    
   122   61  129 1    
   123   62   63 2    
   124   62   64 am   BACKBONE|DICT|INTERRES
   125   64   65 1    
   126   64  130 1    
   127   65   66 1    
   128   65   69 1    
   129   65  131 1    
   130   66   67 am   BACKBONE|DICT|INTERRES
   131   66   68 2    
   132   67  132 1    
   133   67  133 1    
   134   69   70 1    
   135   69  134 1    
   136   69  135 1    
   137   70   71 1    
   138   71  136 1    
   139   71  137 1    
@<TRIPOS>SUBSTRUCTURE
     1 UNK         1 GROUP             0       ****    0 ROOT    
