@<TRIPOS>MOLECULE
3R136
137   139    1
SMALL
USER_CHARGES


@<TRIPOS>ATOM
      1 CA         31.1033   21.5847    6.3528 C.3       0 UNK        -0.1979 
      2 C          30.0830   21.1096    5.3294 C.2       0 UNK         0.4864 
      3 O          29.1374   20.4057    5.6887 O.2       0 UNK        -0.5359 
      4 N          30.2751   21.4766    4.0564 N.am      1 UNK        -0.4318 
      5 CA         29.3720   21.1722    2.9432 C.3       1 UNK         0.0824 
      6 C6         30.0525   21.3786    1.5620 C.3       12 UNK        -0.0944 
      7 S7         31.0287   22.9168    1.3907 S.3       12 UNK        -0.2672 
      8 C8         29.8400   23.9968    0.5416 C.3       12 UNK         0.0333 
      9 C9         30.4621   25.3326    0.1606 C.ar      12 UNK        -0.0807 
     10 C10        30.8000   26.2631    1.1491 C.ar      12 UNK        -0.0894 
     11 C11        31.3628   27.4965    0.8037 C.ar      12 UNK        -0.0804 
     12 C12        31.5618   27.8049   -0.5450 C.ar      12 UNK        -0.0824 
     13 C13        31.1900   26.8994   -1.5434 C.ar      12 UNK        -0.0762 
     14 C14        30.6541   25.6596   -1.1844 C.ar      12 UNK        -0.0782 
     15 C15        31.3595   27.2587   -3.0121 C.3       12 UNK         0.0230 
     16 S16        29.7788   27.7511   -3.7761 S.3       12 UNK        -0.2608 
     17 C17        29.4136   29.3239   -2.9225 C.3       12 UNK        -0.0989 
     18 CA         28.0838   29.2983   -2.1226 C.3       5 UNK         0.0716 
     19 N          28.0108   28.1771   -1.1752 N.am      5 UNK        -0.4135 
     20 C          26.8720   27.6810   -0.6728 C.2       4 UNK         0.5031 
     21 O          25.7454   28.0544   -1.0061 O.2       4 UNK        -0.5229 
     22 CA         27.0219   26.6408    0.4464 C.3       4 UNK         0.0329 
     23 CB         26.6112   27.2316    1.8048 C.3       4 UNK        -0.2001 
     24 N          26.2538   25.4241    0.1976 N.am      4 UNK        -0.4303 
     25 C          26.4762   24.5550   -0.7951 C.2       3 UNK         0.5044 
     26 O          27.3498   24.7016   -1.6511 O.2       3 UNK        -0.5152 
     27 CA         25.6104   23.2802   -0.7852 C.3       3 UNK         0.0319 
     28 CB         25.8889   22.3662   -1.9934 C.3       3 UNK        -0.2001 
     29 N          25.8060   22.5065    0.4455 N.am      3 UNK        -0.4354 
     30 C          25.2429   22.7775    1.6319 C.2       2 UNK         0.4964 
     31 O          24.4883   23.7322    1.8237 O.2       2 UNK        -0.5047 
     32 CA         25.5765   21.8357    2.8005 C.3       2 UNK         0.0288 
     33 CB         24.5556   20.6880    2.8706 C.3       2 UNK        -0.2113 
     34 N          26.9301   21.2768    2.7255 N.am      2 UNK        -0.4145 
     35 C          28.0413   21.9466    3.0645 C.2       1 UNK         0.5006 
     36 O          28.0419   23.1179    3.4520 O.2       1 UNK        -0.5103 
     37 C          27.8665   30.6615   -1.4247 C.2       5 UNK         0.5055 
     38 O          27.6623   31.6594   -2.1168 O.2       5 UNK        -0.5220 
     39 N          27.9493   30.6838   -0.0822 N.am      6 UNK        -0.4450 
     40 CA         27.8744   31.8509    0.8080 C.3       6 UNK         0.0367 
     41 CB         26.4976   32.5431    0.7135 C.3       6 UNK        -0.1929 
     42 C          29.0550   32.8267    0.6265 C.2       6 UNK         0.5070 
     43 O          28.9047   34.0265    0.8615 O.2       6 UNK        -0.5237 
     44 N          30.2156   32.2910    0.2201 N.am      7 UNK        -0.4739 
     45 CA         31.4547   33.0429    0.0056 C.3       7 UNK         0.0276 
     46 CB         32.4410   32.1756   -0.7945 C.3       7 UNK        -0.1927 
     47 C          32.1000   33.5270    1.3157 C.2       7 UNK         0.5013 
     48 O          32.6882   34.6090    1.3341 O.2       7 UNK        -0.5193 
     49 N          31.9719   32.7261    2.3800 N.am      8 UNK        -0.4253 
     50 CA         32.4706   32.9907    3.7251 C.3       8 UNK         0.0242 
     51 CB         34.0055   32.8413    3.7706 C.3       8 UNK        -0.2000 
     52 C          31.8136   31.9928    4.6835 C.2       8 UNK         0.4948 
     53 O          31.4175   30.9063    4.2545 O.2       8 UNK        -0.5275 
     54 N          31.7594   32.3528    5.9723 N.am      9 UNK        -0.4246 
     55 CA         31.3190   31.4673    7.0584 C.3       9 UNK         0.0261 
     56 CB         30.9360   32.3182    8.2804 C.3       9 UNK        -0.1959 
     57 C          32.3792   30.4172    7.4461 C.2       9 UNK         0.5033 
     58 O          32.0372   29.4138    8.0743 O.2       9 UNK        -0.5390 
     59 N          33.6406   30.6574    7.0558 N.am      10 UNK        -0.4215 
     60 CA         34.8171   29.8224    7.3204 C.3       10 UNK         0.0240 
     61 CB         36.0647   30.5421    6.7805 C.3       10 UNK        -0.1982 
     62 C          34.7430   28.3888    6.7605 C.2       10 UNK         0.4970 
     63 O          35.5068   27.5359    7.2150 O.2       10 UNK        -0.4916 
     64 N          33.8370   28.1415    5.8053 N.am      11 UNK        -0.4279 
     65 CA         33.5346   26.8078    5.2647 C.3       11 UNK         0.1003 
     66 C          32.8850   25.8340    6.2928 C.2       11 UNK         0.5709 
     67 N          32.3075   26.3126    7.3906 N.am      11 UNK        -0.7358 
     68 O          32.9091   24.6233    6.0881 O.2       11 UNK        -0.4999 
     69 C69        32.6655   26.8779    3.9824 C.3       12 UNK        -0.0954 
     70 S70        33.2953   28.0363    2.7197 S.3       12 UNK        -0.2268 
     71 C71        31.7488   28.5033    1.8793 C.3       12 UNK         0.0203 
     72 H72        30.6552   22.3253    7.0146 H         1 UNK         0.0888 
     73 H73        31.4488   20.7477    6.9589 H         1 UNK         0.0888 
     74 H74        31.9732   22.0370    5.8768 H         1 UNK         0.0888 
     75 H75        31.0472   22.0845    3.8202 H         1 UNK         0.3017 
     76 H76        29.1296   20.1097    3.0222 H         1 UNK         0.0873 
     77 H77        30.7483   20.5549    1.3947 H         1 UNK         0.0745 
     78 H78        29.3286   21.3031    0.7481 H         1 UNK         0.0745 
     79 H79        29.4634   23.4837   -0.3445 H         1 UNK         0.0705 
     80 H80        28.9803   24.1722    1.1880 H         1 UNK         0.0705 
     81 H81        30.6295   26.0180    2.1879 H         1 UNK         0.1334 
     82 H82        31.9994   28.7552   -0.8185 H         1 UNK         0.1417 
     83 H83        30.3644   24.9590   -1.9566 H         1 UNK         0.1562 
     84 H84        31.7586   26.3986   -3.5520 H         1 UNK         0.0748 
     85 H85        32.0900   28.0598   -3.1364 H         1 UNK         0.0748 
     86 H86        29.3702   30.1012   -3.6884 H         1 UNK         0.0940 
     87 H87        30.2501   29.5992   -2.2797 H         1 UNK         0.0940 
     88 H88        27.2703   29.1806   -2.8420 H         1 UNK         0.0703 
     89 H89        28.8926   27.7616   -0.9071 H         1 UNK         0.3081 
     90 H90        28.0681   26.3567    0.5165 H         1 UNK         0.0719 
     91 H91        25.5582   27.5163    1.8186 H         1 UNK         0.0809 
     92 H92        26.7760   26.5174    2.6123 H         1 UNK         0.0809 
     93 H93        27.1942   28.1228    2.0398 H         1 UNK         0.0809 
     94 H94        25.5176   25.1990    0.8583 H         1 UNK         0.2990 
     95 H95        24.5667   23.5971   -0.8432 H         1 UNK         0.0690 
     96 H96        25.2274   21.4996   -1.9965 H         1 UNK         0.0788 
     97 H97        26.9178   22.0040   -1.9990 H         1 UNK         0.0788 
     98 H98        25.7257   22.8989   -2.9314 H         1 UNK         0.0788 
     99 H99        26.4286   21.7151    0.3830 H         1 UNK         0.2993 
    100 H100       25.4932   22.4180    3.7214 H         1 UNK         0.0949 
    101 H101       24.7296   20.0554    3.7413 H         1 UNK         0.0767 
    102 H102       23.5388   21.0753    2.9524 H         1 UNK         0.0767 
    103 H103       24.5928   20.0560    1.9823 H         1 UNK         0.0767 
    104 H104       27.0067   20.3133    2.4313 H         1 UNK         0.3013 
    105 H105       28.1172   29.8024    0.3795 H         1 UNK         0.3121 
    106 H106       27.9696   31.4612    1.8228 H         1 UNK         0.0774 
    107 H107       26.3889   33.3034    1.4879 H         1 UNK         0.0815 
    108 H108       26.3568   33.0393   -0.2471 H         1 UNK         0.0815 
    109 H109       25.6844   31.8295    0.8457 H         1 UNK         0.0815 
    110 H110       30.2451   31.2994    0.0406 H         1 UNK         0.2987 
    111 H111       31.2160   33.9274   -0.5897 H         1 UNK         0.0949 
    112 H112       32.7221   31.2724   -0.2518 H         1 UNK         0.0806 
    113 H113       32.0198   31.8760   -1.7544 H         1 UNK         0.0806 
    114 H114       33.3593   32.7261   -1.0041 H         1 UNK         0.0806 
    115 H115       31.4511   31.8619    2.2999 H         1 UNK         0.3010 
    116 H116       32.1840   34.0041    4.0141 H         1 UNK         0.0829 
    117 H117       34.4983   33.5427    3.0975 H         1 UNK         0.0813 
    118 H118       34.3935   33.0385    4.7703 H         1 UNK         0.0813 
    119 H119       34.3188   31.8348    3.4888 H         1 UNK         0.0813 
    120 H120       32.0852   33.2716    6.2398 H         1 UNK         0.3038 
    121 H121       30.4298   30.9256    6.7278 H         1 UNK         0.0769 
    122 H122       31.7849   32.8877    8.6607 H         1 UNK         0.0811 
    123 H123       30.5749   31.6892    9.0956 H         1 UNK         0.0811 
    124 H124       30.1386   33.0217    8.0402 H         1 UNK         0.0811 
    125 H125       33.8105   31.5122    6.5488 H         1 UNK         0.3204 
    126 H126       34.9135   29.7340    8.4044 H         1 UNK         0.0748 
    127 H127       36.1927   31.5205    7.2442 H         1 UNK         0.0771 
    128 H128       36.9692   29.9686    6.9891 H         1 UNK         0.0771 
    129 H129       36.0121   30.6848    5.7002 H         1 UNK         0.0771 
    130 H130       33.2554   28.8962    5.4731 H         1 UNK         0.2980 
    131 H131       34.4899   26.3603    4.9838 H         1 UNK         0.0545 
    132 H132       31.8948   25.6714    8.0484 H         1 UNK         0.3459 
    133 H133       32.2758   27.3091    7.5685 H         1 UNK         0.3459 
    134 H134       31.6464   27.1669    4.2460 H         1 UNK         0.0616 
    135 H135       32.5979   25.8900    3.5231 H         1 UNK         0.0616 
    136 H136       30.9389   28.6127    2.6017 H         1 UNK         0.0634 
    137 H137       31.8891   29.4914    1.4395 H         1 UNK         0.0634 
@<TRIPOS>BOND
     1    1    2 1    
     2    1   72 1    
     3    1   73 1    
     4    1   74 1    
     5    2    3 2    
     6    2    4 am   BACKBONE|DICT|INTERRES
     7    4    5 1    
     8    4   75 1    
     9    5    6 1    
    10    5   35 1    
    11    5   76 1    
    12    6    7 1    
    13    6   77 1    
    14    6   78 1    
    15    7    8 1    
    16    8    9 1    
    17    8   79 1    
    18    8   80 1    
    19    9   10 ar   
    20    9   14 ar   
    21   10   11 ar   
    22   10   81 1    
    23   11   12 ar   
    24   11   71 1    
    25   12   13 ar   
    26   12   82 1    
    27   13   14 ar   
    28   13   15 1    
    29   14   83 1    
    30   15   16 1    
    31   15   84 1    
    32   15   85 1    
    33   16   17 1    
    34   17   18 1    
    35   17   86 1    
    36   17   87 1    
    37   18   19 1    
    38   18   37 1    
    39   18   88 1    
    40   19   20 am   BACKBONE|DICT|INTERRES
    41   19   89 1    
    42   20   21 2    
    43   20   22 1    
    44   22   23 1    
    45   22   24 1    
    46   22   90 1    
    47   23   91 1    
    48   23   92 1    
    49   23   93 1    
    50   24   25 am   BACKBONE|DICT|INTERRES
    51   24   94 1    
    52   25   26 2    
    53   25   27 1    
    54   27   28 1    
    55   27   29 1    
    56   27   95 1    
    57   28   96 1    
    58   28   97 1    
    59   28   98 1    
    60   29   30 am   BACKBONE|DICT|INTERRES
    61   29   99 1    
    62   30   31 2    
    63   30   32 1    
    64   32   33 1    
    65   32   34 1    
    66   32  100 1    
    67   33  101 1    
    68   33  102 1    
    69   33  103 1    
    70   34   35 am   BACKBONE|DICT|INTERRES
    71   34  104 1    
    72   35   36 2    
    73   37   38 2    
    74   37   39 am   BACKBONE|DICT|INTERRES
    75   39   40 1    
    76   39  105 1    
    77   40   41 1    
    78   40   42 1    
    79   40  106 1    
    80   41  107 1    
    81   41  108 1    
    82   41  109 1    
    83   42   43 2    
    84   42   44 am   BACKBONE|DICT|INTERRES
    85   44   45 1    
    86   44  110 1    
    87   45   46 1    
    88   45   47 1    
    89   45  111 1    
    90   46  112 1    
    91   46  113 1    
    92   46  114 1    
    93   47   48 2    
    94   47   49 am   BACKBONE|DICT|INTERRES
    95   49   50 1    
    96   49  115 1    
    97   50   51 1    
    98   50   52 1    
    99   50  116 1    
   100   51  117 1    
   101   51  118 1    
   102   51  119 1    
   103   52   53 2    
   104   52   54 am   BACKBONE|DICT|INTERRES
   105   54   55 1    
   106   54  120 1    
   107   55   56 1    
   108   55   57 1    
   109   55  121 1    
   110   56  122 1    
   111   56  123 1    
   112   56  124 1    
   113   57   58 2    
   114   57   59 am   BACKBONE|DICT|INTERRES
   115   59   60 1    
   116   59  125 1    
   117   60   61 1    
   118   60   62 1    
   119   60  126 1    
   120   61  127 1    
   121   61  128 1    
   122   61  129 1    
   123   62   63 2    
   124   62   64 am   BACKBONE|DICT|INTERRES
   125   64   65 1    
   126   64  130 1    
   127   65   66 1    
   128   65   69 1    
   129   65  131 1    
   130   66   67 am   BACKBONE|DICT|INTERRES
   131   66   68 2    
   132   67  132 1    
   133   67  133 1    
   134   69   70 1    
   135   69  134 1    
   136   69  135 1    
   137   70   71 1    
   138   71  136 1    
   139   71  137 1    
@<TRIPOS>SUBSTRUCTURE
     1 UNK         1 GROUP             0       ****    0 ROOT    
