@<TRIPOS>MOLECULE
3R136
137   139    1
SMALL
USER_CHARGES


@<TRIPOS>ATOM
      1 CA         33.3674   25.7253   -1.7446 C.3       0 UNK        -0.1979 
      2 C          32.0089   25.2339   -1.2706 C.2       0 UNK         0.4864 
      3 O          30.9898   25.8519   -1.5796 O.2       0 UNK        -0.5359 
      4 N          31.9792   24.1396   -0.5020 N.am      1 UNK        -0.4318 
      5 CA         30.7571   23.5184    0.0219 C.3       1 UNK         0.0824 
      6 C6         31.0729   22.4428    1.0941 C.3       12 UNK        -0.0944 
      7 S7         32.2060   23.0403    2.3969 S.3       12 UNK        -0.2672 
      8 C8         31.4962   22.3257    3.9138 C.3       12 UNK         0.0333 
      9 C9         30.6442   23.3350    4.6690 C.ar      12 UNK        -0.0807 
     10 C10        31.2606   24.4141    5.3072 C.ar      12 UNK        -0.0894 
     11 C11        30.5084   25.3507    6.0219 C.ar      12 UNK        -0.0804 
     12 C12        29.1277   25.1675    6.1330 C.ar      12 UNK        -0.0824 
     13 C13        28.4942   24.0875    5.5078 C.ar      12 UNK        -0.0762 
     14 C14        29.2585   23.1791    4.7665 C.ar      12 UNK        -0.0782 
     15 C15        26.9887   23.8798    5.6491 C.3       12 UNK         0.0230 
     16 S16        26.0141   25.3995    5.3813 S.3       12 UNK        -0.2608 
     17 C17        26.5394   25.8746    3.7025 C.3       12 UNK        -0.0989 
     18 CA         27.2974   27.2290    3.6736 C.3       5 UNK         0.0716 
     19 N          28.2379   27.2982    2.5529 N.am      5 UNK        -0.4135 
     20 C          29.1834   28.2376    2.3999 C.2       4 UNK         0.5031 
     21 O          29.4115   29.1240    3.2205 O.2       4 UNK        -0.5229 
     22 CA         30.0141   28.2249    1.1057 C.3       4 UNK         0.0329 
     23 CB         31.3688   27.5550    1.3707 C.3       4 UNK        -0.2001 
     24 N          29.3614   27.5889   -0.0408 N.am      4 UNK        -0.4303 
     25 C          28.1846   27.9534   -0.5694 C.2       3 UNK         0.5044 
     26 O          27.5283   28.9218   -0.1830 O.2       3 UNK        -0.5152 
     27 CA         27.5982   27.0165   -1.6413 C.3       3 UNK         0.0319 
     28 CB         28.1469   27.3647   -3.0334 C.3       3 UNK        -0.2001 
     29 N          27.8194   25.5896   -1.3555 N.am      3 UNK        -0.4354 
     30 C          27.4072   24.9659   -0.2401 C.2       2 UNK         0.4964 
     31 O          26.8113   25.5438    0.6667 O.2       2 UNK        -0.5047 
     32 CA         27.7084   23.4659   -0.0695 C.3       2 UNK         0.0288 
     33 CB         26.3968   22.6633   -0.0665 C.3       2 UNK        -0.2113 
     34 N          28.5882   22.9159   -1.1044 N.am      2 UNK        -0.4145 
     35 C          29.9295   22.9023   -1.1368 C.2       1 UNK         0.5006 
     36 O          30.5288   22.3732   -2.0747 O.2       1 UNK        -0.5103 
     37 C          26.3127   28.4138    3.6443 C.2       5 UNK         0.5055 
     38 O          26.0816   29.0467    4.6754 O.2       5 UNK        -0.5220 
     39 N          25.7647   28.6964    2.4537 N.am      6 UNK        -0.4450 
     40 CA         24.8386   29.8015    2.2123 C.3       6 UNK         0.0367 
     41 CB         24.0610   29.5420    0.9118 C.3       6 UNK        -0.1929 
     42 C          25.5628   31.1541    2.1513 C.2       6 UNK         0.5070 
     43 O          25.0625   32.1350    2.7017 O.2       6 UNK        -0.5237 
     44 N          26.7219   31.1839    1.4800 N.am      7 UNK        -0.4739 
     45 CA         27.5247   32.3920    1.2801 C.3       7 UNK         0.0276 
     46 CB         28.4741   32.1654    0.0925 C.3       7 UNK        -0.1927 
     47 C          28.3185   32.8341    2.5226 C.2       7 UNK         0.5013 
     48 O          28.6954   34.0046    2.5893 O.2       7 UNK        -0.5193 
     49 N          28.5842   31.9005    3.4520 N.am      8 UNK        -0.4253 
     50 CA         29.4965   32.0194    4.6002 C.3       8 UNK         0.0242 
     51 CB         28.9657   33.0348    5.6348 C.3       8 UNK        -0.2000 
     52 C          30.9332   32.3161    4.1257 C.2       8 UNK         0.4948 
     53 O          31.5406   33.2990    4.5569 O.2       8 UNK        -0.5275 
     54 N          31.4085   31.4889    3.1855 N.am      9 UNK        -0.4246 
     55 CA         32.6123   31.7257    2.3886 C.3       9 UNK         0.0261 
     56 CB         32.2006   31.9324    0.9145 C.3       9 UNK        -0.1959 
     57 C          33.6469   30.6102    2.6112 C.2       9 UNK         0.5033 
     58 O          34.0333   30.3670    3.7561 O.2       9 UNK        -0.5390 
     59 N          34.1186   29.9870    1.5216 N.am      10 UNK        -0.4215 
     60 CA         35.2024   29.0007    1.4748 C.3       10 UNK         0.0240 
     61 CB         35.7059   28.8925    0.0228 C.3       10 UNK        -0.1982 
     62 C          34.8150   27.6309    2.0666 C.2       10 UNK         0.4970 
     63 O          34.7542   26.6368    1.3418 O.2       10 UNK        -0.4916 
     64 N          34.5619   27.6129    3.3781 N.am      11 UNK        -0.4279 
     65 CA         34.2658   26.4209    4.1865 C.3       11 UNK         0.1003 
     66 C          35.4350   25.3977    4.3063 C.2       11 UNK         0.5709 
     67 N          36.6719   25.7496    3.9741 N.am      11 UNK        -0.7358 
     68 O          35.2124   24.2609    4.7150 O.2       11 UNK        -0.4999 
     69 C69        33.7588   26.8302    5.5946 C.3       12 UNK        -0.0954 
     70 S70        32.1058   27.6042    5.5518 S.3       12 UNK        -0.2268 
     71 C71        31.1726   26.5415    6.7059 C.3       12 UNK         0.0203 
     72 H72        33.4697   25.5703   -2.8180 H         1 UNK         0.0888 
     73 H73        33.4695   26.7902   -1.5409 H         1 UNK         0.0888 
     74 H74        34.1840   25.2082   -1.2409 H         1 UNK         0.0888 
     75 H75        32.8406   23.6693   -0.2648 H         1 UNK         0.3017 
     76 H76        30.1891   24.3189    0.4964 H         1 UNK         0.0873 
     77 H77        31.5357   21.5658    0.6365 H         1 UNK         0.0745 
     78 H78        30.1480   22.0922    1.5548 H         1 UNK         0.0745 
     79 H79        30.9319   21.4213    3.6819 H         1 UNK         0.0705 
     80 H80        32.3168   22.0091    4.5594 H         1 UNK         0.0705 
     81 H81        32.3322   24.5164    5.2371 H         1 UNK         0.1334 
     82 H82        28.5391   25.8697    6.7076 H         1 UNK         0.1417 
     83 H83        28.7789   22.3381    4.2841 H         1 UNK         0.1562 
     84 H84        26.7802   23.5014    6.6505 H         1 UNK         0.0748 
     85 H85        26.6365   23.1176    4.9520 H         1 UNK         0.0748 
     86 H86        25.6630   25.8831    3.0511 H         1 UNK         0.0940 
     87 H87        27.1761   25.0825    3.3061 H         1 UNK         0.0940 
     88 H88        27.8952   27.3177    4.5833 H         1 UNK         0.0703 
     89 H89        28.0711   26.6415    1.7998 H         1 UNK         0.3081 
     90 H90        30.1958   29.2648    0.8343 H         1 UNK         0.0719 
     91 H91        31.2651   26.4856    1.5591 H         1 UNK         0.0809 
     92 H92        32.0485   27.6873    0.5295 H         1 UNK         0.0809 
     93 H93        31.8513   27.9880    2.2478 H         1 UNK         0.0809 
     94 H94        29.8663   26.8301   -0.4963 H         1 UNK         0.2990 
     95 H95        26.5186   27.1797   -1.6542 H         1 UNK         0.0690 
     96 H96        27.9694   28.4148   -3.2700 H         1 UNK         0.0788 
     97 H97        27.6630   26.7726   -3.8102 H         1 UNK         0.0788 
     98 H98        29.2217   27.1933   -3.1010 H         1 UNK         0.0788 
     99 H99        28.3377   25.0641   -2.0451 H         1 UNK         0.2993 
    100 H100       28.1649   23.3363    0.9129 H         1 UNK         0.0949 
    101 H101       26.5801   21.6040    0.1158 H         1 UNK         0.0767 
    102 H102       25.7248   23.0116    0.7197 H         1 UNK         0.0767 
    103 H103       25.8637   22.7541   -1.0139 H         1 UNK         0.0767 
    104 H104       28.1092   22.4914   -1.8856 H         1 UNK         0.3013 
    105 H105       26.0442   28.1521    1.6485 H         1 UNK         0.3121 
    106 H106       24.1212   29.8411    3.0352 H         1 UNK         0.0774 
    107 H107       23.3521   30.3474    0.7150 H         1 UNK         0.0815 
    108 H108       24.7245   29.4736    0.0485 H         1 UNK         0.0815 
    109 H109       23.4897   28.6154    0.9697 H         1 UNK         0.0815 
    110 H110       27.0344   30.3402    1.0045 H         1 UNK         0.2987 
    111 H111       26.8505   33.2117    1.0209 H         1 UNK         0.0949 
    112 H112       29.1706   31.3500    0.2845 H         1 UNK         0.0806 
    113 H113       27.9220   31.9244   -0.8162 H         1 UNK         0.0806 
    114 H114       29.0640   33.0593   -0.1145 H         1 UNK         0.0806 
    115 H115       28.2629   30.9575    3.2692 H         1 UNK         0.3010 
    116 H116       29.5232   31.0420    5.0846 H         1 UNK         0.0829 
    117 H117       28.9510   34.0513    5.2408 H         1 UNK         0.0813 
    118 H118       27.9537   32.7832    5.9518 H         1 UNK         0.0813 
    119 H119       29.5934   33.0429    6.5266 H         1 UNK         0.0813 
    120 H120       30.8691   30.6558    2.9768 H         1 UNK         0.3038 
    121 H121       33.1020   32.6449    2.7164 H         1 UNK         0.0769 
    122 H122       31.7337   31.0462    0.4850 H         1 UNK         0.0811 
    123 H123       33.0573   32.1987    0.2939 H         1 UNK         0.0811 
    124 H124       31.4879   32.7528    0.8257 H         1 UNK         0.0811 
    125 H125       33.7289   30.2522    0.6291 H         1 UNK         0.3204 
    126 H126       36.0289   29.3821    2.0783 H         1 UNK         0.0748 
    127 H127       36.5278   28.1792   -0.0552 H         1 UNK         0.0771 
    128 H128       34.9195   28.5592   -0.6548 H         1 UNK         0.0771 
    129 H129       36.0782   29.8505   -0.3408 H         1 UNK         0.0771 
    130 H130       34.5422   28.5050    3.8641 H         1 UNK         0.2980 
    131 H131       33.4626   25.8876    3.6745 H         1 UNK         0.0545 
    132 H132       37.4150   25.0741    4.0576 H         1 UNK         0.3459 
    133 H133       36.8696   26.6804    3.6456 H         1 UNK         0.3459 
    134 H134       33.7309   25.9718    6.2671 H         1 UNK         0.0616 
    135 H135       34.4530   27.5347    6.0561 H         1 UNK         0.0616 
    136 H136       31.8194   26.1900    7.5104 H         1 UNK         0.0634 
    137 H137       30.4176   27.1673    7.1839 H         1 UNK         0.0634 
@<TRIPOS>BOND
     1    1    2 1    
     2    1   72 1    
     3    1   73 1    
     4    1   74 1    
     5    2    3 2    
     6    2    4 am   BACKBONE|DICT|INTERRES
     7    4    5 1    
     8    4   75 1    
     9    5    6 1    
    10    5   35 1    
    11    5   76 1    
    12    6    7 1    
    13    6   77 1    
    14    6   78 1    
    15    7    8 1    
    16    8    9 1    
    17    8   79 1    
    18    8   80 1    
    19    9   10 ar   
    20    9   14 ar   
    21   10   11 ar   
    22   10   81 1    
    23   11   12 ar   
    24   11   71 1    
    25   12   13 ar   
    26   12   82 1    
    27   13   14 ar   
    28   13   15 1    
    29   14   83 1    
    30   15   16 1    
    31   15   84 1    
    32   15   85 1    
    33   16   17 1    
    34   17   18 1    
    35   17   86 1    
    36   17   87 1    
    37   18   19 1    
    38   18   37 1    
    39   18   88 1    
    40   19   20 am   BACKBONE|DICT|INTERRES
    41   19   89 1    
    42   20   21 2    
    43   20   22 1    
    44   22   23 1    
    45   22   24 1    
    46   22   90 1    
    47   23   91 1    
    48   23   92 1    
    49   23   93 1    
    50   24   25 am   BACKBONE|DICT|INTERRES
    51   24   94 1    
    52   25   26 2    
    53   25   27 1    
    54   27   28 1    
    55   27   29 1    
    56   27   95 1    
    57   28   96 1    
    58   28   97 1    
    59   28   98 1    
    60   29   30 am   BACKBONE|DICT|INTERRES
    61   29   99 1    
    62   30   31 2    
    63   30   32 1    
    64   32   33 1    
    65   32   34 1    
    66   32  100 1    
    67   33  101 1    
    68   33  102 1    
    69   33  103 1    
    70   34   35 am   BACKBONE|DICT|INTERRES
    71   34  104 1    
    72   35   36 2    
    73   37   38 2    
    74   37   39 am   BACKBONE|DICT|INTERRES
    75   39   40 1    
    76   39  105 1    
    77   40   41 1    
    78   40   42 1    
    79   40  106 1    
    80   41  107 1    
    81   41  108 1    
    82   41  109 1    
    83   42   43 2    
    84   42   44 am   BACKBONE|DICT|INTERRES
    85   44   45 1    
    86   44  110 1    
    87   45   46 1    
    88   45   47 1    
    89   45  111 1    
    90   46  112 1    
    91   46  113 1    
    92   46  114 1    
    93   47   48 2    
    94   47   49 am   BACKBONE|DICT|INTERRES
    95   49   50 1    
    96   49  115 1    
    97   50   51 1    
    98   50   52 1    
    99   50  116 1    
   100   51  117 1    
   101   51  118 1    
   102   51  119 1    
   103   52   53 2    
   104   52   54 am   BACKBONE|DICT|INTERRES
   105   54   55 1    
   106   54  120 1    
   107   55   56 1    
   108   55   57 1    
   109   55  121 1    
   110   56  122 1    
   111   56  123 1    
   112   56  124 1    
   113   57   58 2    
   114   57   59 am   BACKBONE|DICT|INTERRES
   115   59   60 1    
   116   59  125 1    
   117   60   61 1    
   118   60   62 1    
   119   60  126 1    
   120   61  127 1    
   121   61  128 1    
   122   61  129 1    
   123   62   63 2    
   124   62   64 am   BACKBONE|DICT|INTERRES
   125   64   65 1    
   126   64  130 1    
   127   65   66 1    
   128   65   69 1    
   129   65  131 1    
   130   66   67 am   BACKBONE|DICT|INTERRES
   131   66   68 2    
   132   67  132 1    
   133   67  133 1    
   134   69   70 1    
   135   69  134 1    
   136   69  135 1    
   137   70   71 1    
   138   71  136 1    
   139   71  137 1    
@<TRIPOS>SUBSTRUCTURE
     1 UNK         1 GROUP             0       ****    0 ROOT    
