@<TRIPOS>MOLECULE
3R136
137   139    1
SMALL
USER_CHARGES


@<TRIPOS>ATOM
      1 CA         29.4743   22.4852   -5.1314 C.3       0 UNK        -0.1979 
      2 C          28.9980   22.7452   -3.7098 C.2       0 UNK         0.4864 
      3 O          28.5788   21.8072   -3.0308 O.2       0 UNK        -0.5359 
      4 N          29.0614   24.0105   -3.2680 N.am      1 UNK        -0.4318 
      5 CA         28.6721   24.5025   -1.9368 C.3       1 UNK         0.0824 
      6 C6         29.5877   23.9954   -0.7868 C.3       12 UNK        -0.0944 
      7 S7         31.3292   24.4577   -1.0649 S.3       12 UNK        -0.2672 
      8 C8         32.1955   23.4087    0.1494 C.3       12 UNK         0.0333 
      9 C9         32.2836   24.0258    1.5431 C.ar      12 UNK        -0.0807 
     10 C10        32.7214   25.3445    1.7129 C.ar      12 UNK        -0.0894 
     11 C11        32.8853   25.8861    2.9914 C.ar      12 UNK        -0.0804 
     12 C12        32.6238   25.0893    4.1101 C.ar      12 UNK        -0.0824 
     13 C13        32.1657   23.7773    3.9585 C.ar      12 UNK        -0.0762 
     14 C14        31.9973   23.2513    2.6730 C.ar      12 UNK        -0.0782 
     15 C15        31.8672   22.9251    5.1850 C.3       12 UNK         0.0230 
     16 S16        30.0823   22.8329    5.5417 S.3       12 UNK        -0.2608 
     17 C17        29.6973   24.5464    6.0470 C.3       12 UNK        -0.0989 
     18 CA         29.1265   25.3851    4.8752 C.3       5 UNK         0.0716 
     19 N          27.9156   24.7889    4.2992 N.am      5 UNK        -0.4135 
     20 C          27.4910   24.9876    3.0462 C.2       4 UNK         0.5031 
     21 O          28.0906   25.7088    2.2428 O.2       4 UNK        -0.5229 
     22 CA         26.1901   24.2898    2.6105 C.3       4 UNK         0.0329 
     23 CB         25.2440   23.9093    3.7729 C.3       4 UNK        -0.2001 
     24 N          25.5106   25.0888    1.5867 N.am      4 UNK        -0.4303 
     25 C          24.9426   26.2973    1.7343 C.2       3 UNK         0.5044 
     26 O          24.7443   26.8305    2.8269 O.2       3 UNK        -0.5152 
     27 CA         24.5656   27.0769    0.4551 C.3       3 UNK         0.0319 
     28 CB         25.2625   28.4498    0.4420 C.3       3 UNK        -0.2001 
     29 N          24.9095   26.3752   -0.7850 N.am      3 UNK        -0.4354 
     30 C          24.2153   25.3662   -1.3294 C.2       2 UNK         0.4964 
     31 O          23.1325   24.9701   -0.8985 O.2       2 UNK        -0.5047 
     32 CA         24.8567   24.6519   -2.5359 C.3       2 UNK         0.0288 
     33 CB         24.2642   25.1812   -3.8521 C.3       2 UNK        -0.2113 
     34 N          26.3225   24.7537   -2.5915 N.am      2 UNK        -0.4145 
     35 C          27.1691   24.2729   -1.6662 C.2       1 UNK         0.5006 
     36 O          26.7960   23.6852   -0.6495 O.2       1 UNK        -0.5103 
     37 C          28.9064   26.8713    5.2381 C.2       5 UNK         0.5055 
     38 O          29.0717   27.2648    6.3932 O.2       5 UNK        -0.5220 
     39 N          28.5288   27.6581    4.2272 N.am      6 UNK        -0.4450 
     40 CA         28.3609   29.1094    4.2362 C.3       6 UNK         0.0367 
     41 CB         26.9968   29.4796    4.8503 C.3       6 UNK        -0.1929 
     42 C          28.5371   29.6633    2.8085 C.2       6 UNK         0.5070 
     43 O          27.9873   30.7162    2.4847 O.2       6 UNK        -0.5237 
     44 N          29.2687   28.9255    1.9607 N.am      7 UNK        -0.4739 
     45 CA         29.4332   29.1933    0.5310 C.3       7 UNK         0.0276 
     46 CB         29.7485   27.8632   -0.1732 C.3       7 UNK        -0.1927 
     47 C          30.5092   30.2441    0.2060 C.2       7 UNK         0.5013 
     48 O          30.5548   30.7115   -0.9330 O.2       7 UNK        -0.5193 
     49 N          31.3590   30.5899    1.1791 N.am      8 UNK        -0.4253 
     50 CA         32.4489   31.5520    1.0427 C.3       8 UNK         0.0242 
     51 CB         33.7217   30.8171    0.5826 C.3       8 UNK        -0.2000 
     52 C          32.6792   32.2442    2.3879 C.2       8 UNK         0.4948 
     53 O          32.2518   31.7290    3.4232 O.2       8 UNK        -0.5275 
     54 N          33.4094   33.3676    2.3670 N.am      9 UNK        -0.4246 
     55 CA         33.7764   34.1611    3.5502 C.3       9 UNK         0.0261 
     56 CB         34.5081   35.4347    3.0956 C.3       9 UNK        -0.1959 
     57 C          34.6163   33.4036    4.5997 C.2       9 UNK         0.5033 
     58 O          34.6448   33.8145    5.7603 O.2       9 UNK        -0.5390 
     59 N          35.2623   32.3059    4.1833 N.am      10 UNK        -0.4215 
     60 CA         35.9816   31.3644    5.0420 C.3       10 UNK         0.0240 
     61 CB         36.8357   30.4419    4.1557 C.3       10 UNK        -0.1982 
     62 C          35.0675   30.5243    5.9570 C.2       10 UNK         0.4970 
     63 O          35.5727   29.9659    6.9320 O.2       10 UNK        -0.4916 
     64 N          33.7703   30.4299    5.6358 N.am      11 UNK        -0.4279 
     65 CA         32.7750   29.6365    6.3729 C.3       11 UNK         0.1003 
     66 C          31.4627   30.4065    6.6853 C.2       11 UNK         0.5709 
     67 N          31.0713   31.4084    5.9084 N.am      11 UNK        -0.7358 
     68 O          30.8057   30.1155    7.6816 O.2       11 UNK        -0.4999 
     69 C69        32.5156   28.2605    5.7026 C.3       12 UNK        -0.0954 
     70 S70        32.0862   28.3709    3.9263 S.3       12 UNK        -0.2268 
     71 C71        33.3601   27.3242    3.1557 C.3       12 UNK         0.0203 
     72 H72        28.6639   22.0673   -5.7282 H         1 UNK         0.0888 
     73 H73        29.8205   23.3958   -5.6201 H         1 UNK         0.0888 
     74 H74        30.2971   21.7707   -5.1257 H         1 UNK         0.0888 
     75 H75        29.4308   24.7173   -3.8888 H         1 UNK         0.3017 
     76 H76        28.7906   25.5861   -1.9783 H         1 UNK         0.0873 
     77 H77        29.2797   24.4205    0.1702 H         1 UNK         0.0745 
     78 H78        29.5115   22.9118   -0.6835 H         1 UNK         0.0745 
     79 H79        33.2119   23.2423   -0.2093 H         1 UNK         0.0705 
     80 H80        31.7216   22.4265    0.1822 H         1 UNK         0.0705 
     81 H81        32.9481   25.9460    0.8434 H         1 UNK         0.1334 
     82 H82        32.7606   25.4956    5.1016 H         1 UNK         0.1417 
     83 H83        31.6594   22.2304    2.5568 H         1 UNK         0.1562 
     84 H84        32.3945   23.3061    6.0611 H         1 UNK         0.0748 
     85 H85        32.2443   21.9143    5.0228 H         1 UNK         0.0748 
     86 H86        30.5987   25.0106    6.4514 H         1 UNK         0.0940 
     87 H87        28.9835   24.5092    6.8720 H         1 UNK         0.0940 
     88 H88        29.8867   25.3916    4.0925 H         1 UNK         0.0703 
     89 H89        27.3725   24.1998    4.9124 H         1 UNK         0.3081 
     90 H90        26.4939   23.3665    2.1154 H         1 UNK         0.0719 
     91 H91        25.6803   23.1310    4.3997 H         1 UNK         0.0809 
     92 H92        24.2993   23.5171    3.3960 H         1 UNK         0.0809 
     93 H93        25.0153   24.7608    4.4149 H         1 UNK         0.0809 
     94 H94        25.6805   24.7611    0.6421 H         1 UNK         0.2990 
     95 H95        23.4860   27.2389    0.4792 H         1 UNK         0.0690 
     96 H96        24.9912   29.0277   -0.4416 H         1 UNK         0.0788 
     97 H97        26.3482   28.3476    0.4600 H         1 UNK         0.0788 
     98 H98        24.9805   29.0438    1.3126 H         1 UNK         0.0788 
     99 H99        25.7823   26.6364   -1.2189 H         1 UNK         0.2993 
    100 H100       24.6062   23.5923   -2.4487 H         1 UNK         0.0949 
    101 H101       23.1766   25.0926   -3.8544 H         1 UNK         0.0767 
    102 H102       24.5057   26.2332   -4.0100 H         1 UNK         0.0767 
    103 H103       24.6338   24.6179   -4.7093 H         1 UNK         0.0767 
    104 H104       26.7107   25.2041   -3.4080 H         1 UNK         0.3013 
    105 H105       28.3578   27.1983    3.3337 H         1 UNK         0.3121 
    106 H106       29.1528   29.5472    4.8457 H         1 UNK         0.0774 
    107 H107       26.1725   29.0708    4.2642 H         1 UNK         0.0815 
    108 H108       26.9033   29.1033    5.8690 H         1 UNK         0.0815 
    109 H109       26.8655   30.5613    4.8947 H         1 UNK         0.0815 
    110 H110       29.7394   28.1052    2.3166 H         1 UNK         0.2987 
    111 H111       28.4887   29.5733    0.1357 H         1 UNK         0.0949 
    112 H112       28.9577   27.1319   -0.0060 H         1 UNK         0.0806 
    113 H113       29.8424   27.9999   -1.2513 H         1 UNK         0.0806 
    114 H114       30.6837   27.4290    0.1833 H         1 UNK         0.0806 
    115 H115       31.2315   30.2172    2.1122 H         1 UNK         0.3010 
    116 H116       32.1768   32.3160    0.3111 H         1 UNK         0.0829 
    117 H117       33.5624   30.3073   -0.3678 H         1 UNK         0.0813 
    118 H118       34.5513   31.5101    0.4385 H         1 UNK         0.0813 
    119 H119       34.0399   30.0703    1.3111 H         1 UNK         0.0813 
    120 H120       33.7329   33.7176    1.4759 H         1 UNK         0.3038 
    121 H121       32.8480   34.4578    4.0429 H         1 UNK         0.0769 
    122 H122       35.4348   35.2022    2.5693 H         1 UNK         0.0811 
    123 H123       34.7676   36.0624    3.9495 H         1 UNK         0.0811 
    124 H124       33.8857   36.0366    2.4332 H         1 UNK         0.0811 
    125 H125       35.1900   32.0626    3.2069 H         1 UNK         0.3204 
    126 H126       36.6500   31.9382    5.6874 H         1 UNK         0.0748 
    127 H127       37.4197   29.7479    4.7622 H         1 UNK         0.0771 
    128 H128       36.2192   29.8451    3.4818 H         1 UNK         0.0771 
    129 H129       37.5417   31.0122    3.5514 H         1 UNK         0.0771 
    130 H130       33.4141   30.9221    4.8241 H         1 UNK         0.2980 
    131 H131       33.1832   29.4192    7.3617 H         1 UNK         0.0545 
    132 H132       31.5469   31.6082    5.0309 H         1 UNK         0.3459 
    133 H133       30.2347   31.9135    6.1486 H         1 UNK         0.3459 
    134 H134       31.7252   27.7184    6.2225 H         1 UNK         0.0616 
    135 H135       33.4092   27.6475    5.8201 H         1 UNK         0.0616 
    136 H136       33.6007   27.7549    2.1828 H         1 UNK         0.0634 
    137 H137       34.2850   27.3521    3.7327 H         1 UNK         0.0634 
@<TRIPOS>BOND
     1    1    2 1    
     2    1   72 1    
     3    1   73 1    
     4    1   74 1    
     5    2    3 2    
     6    2    4 am   BACKBONE|DICT|INTERRES
     7    4    5 1    
     8    4   75 1    
     9    5    6 1    
    10    5   35 1    
    11    5   76 1    
    12    6    7 1    
    13    6   77 1    
    14    6   78 1    
    15    7    8 1    
    16    8    9 1    
    17    8   79 1    
    18    8   80 1    
    19    9   10 ar   
    20    9   14 ar   
    21   10   11 ar   
    22   10   81 1    
    23   11   12 ar   
    24   11   71 1    
    25   12   13 ar   
    26   12   82 1    
    27   13   14 ar   
    28   13   15 1    
    29   14   83 1    
    30   15   16 1    
    31   15   84 1    
    32   15   85 1    
    33   16   17 1    
    34   17   18 1    
    35   17   86 1    
    36   17   87 1    
    37   18   19 1    
    38   18   37 1    
    39   18   88 1    
    40   19   20 am   BACKBONE|DICT|INTERRES
    41   19   89 1    
    42   20   21 2    
    43   20   22 1    
    44   22   23 1    
    45   22   24 1    
    46   22   90 1    
    47   23   91 1    
    48   23   92 1    
    49   23   93 1    
    50   24   25 am   BACKBONE|DICT|INTERRES
    51   24   94 1    
    52   25   26 2    
    53   25   27 1    
    54   27   28 1    
    55   27   29 1    
    56   27   95 1    
    57   28   96 1    
    58   28   97 1    
    59   28   98 1    
    60   29   30 am   BACKBONE|DICT|INTERRES
    61   29   99 1    
    62   30   31 2    
    63   30   32 1    
    64   32   33 1    
    65   32   34 1    
    66   32  100 1    
    67   33  101 1    
    68   33  102 1    
    69   33  103 1    
    70   34   35 am   BACKBONE|DICT|INTERRES
    71   34  104 1    
    72   35   36 2    
    73   37   38 2    
    74   37   39 am   BACKBONE|DICT|INTERRES
    75   39   40 1    
    76   39  105 1    
    77   40   41 1    
    78   40   42 1    
    79   40  106 1    
    80   41  107 1    
    81   41  108 1    
    82   41  109 1    
    83   42   43 2    
    84   42   44 am   BACKBONE|DICT|INTERRES
    85   44   45 1    
    86   44  110 1    
    87   45   46 1    
    88   45   47 1    
    89   45  111 1    
    90   46  112 1    
    91   46  113 1    
    92   46  114 1    
    93   47   48 2    
    94   47   49 am   BACKBONE|DICT|INTERRES
    95   49   50 1    
    96   49  115 1    
    97   50   51 1    
    98   50   52 1    
    99   50  116 1    
   100   51  117 1    
   101   51  118 1    
   102   51  119 1    
   103   52   53 2    
   104   52   54 am   BACKBONE|DICT|INTERRES
   105   54   55 1    
   106   54  120 1    
   107   55   56 1    
   108   55   57 1    
   109   55  121 1    
   110   56  122 1    
   111   56  123 1    
   112   56  124 1    
   113   57   58 2    
   114   57   59 am   BACKBONE|DICT|INTERRES
   115   59   60 1    
   116   59  125 1    
   117   60   61 1    
   118   60   62 1    
   119   60  126 1    
   120   61  127 1    
   121   61  128 1    
   122   61  129 1    
   123   62   63 2    
   124   62   64 am   BACKBONE|DICT|INTERRES
   125   64   65 1    
   126   64  130 1    
   127   65   66 1    
   128   65   69 1    
   129   65  131 1    
   130   66   67 am   BACKBONE|DICT|INTERRES
   131   66   68 2    
   132   67  132 1    
   133   67  133 1    
   134   69   70 1    
   135   69  134 1    
   136   69  135 1    
   137   70   71 1    
   138   71  136 1    
   139   71  137 1    
@<TRIPOS>SUBSTRUCTURE
     1 UNK         1 GROUP             0       ****    0 ROOT    
