@<TRIPOS>MOLECULE
3R136
137   139    1
SMALL
USER_CHARGES


@<TRIPOS>ATOM
      1 CA         27.2884   19.5588    1.4424 C.3       0 UNK        -0.1979 
      2 C          26.8142   19.4653   -0.0068 C.2       0 UNK         0.4864 
      3 O          26.0229   18.5767   -0.3171 O.2       0 UNK        -0.5359 
      4 N          27.2463   20.3388   -0.9323 N.am      1 UNK        -0.4318 
      5 CA         28.1742   21.4736   -0.7840 C.3       1 UNK         0.0824 
      6 C6         29.5672   21.0525   -0.2305 C.3       12 UNK        -0.0944 
      7 S7         30.9652   21.9660   -0.9686 S.3       12 UNK        -0.2672 
      8 C8         32.2349   21.8310    0.3358 C.3       12 UNK         0.0333 
      9 C9         32.1471   22.9713    1.3422 C.ar      12 UNK        -0.0807 
     10 C10        32.9804   24.0883    1.2253 C.ar      12 UNK        -0.0894 
     11 C11        32.8914   25.1507    2.1337 C.ar      12 UNK        -0.0804 
     12 C12        31.9454   25.0853    3.1662 C.ar      12 UNK        -0.0824 
     13 C13        31.1087   23.9723    3.2954 C.ar      12 UNK        -0.0762 
     14 C14        31.2349   22.9118    2.3962 C.ar      12 UNK        -0.0782 
     15 C15        30.0690   23.8897    4.4046 C.3       12 UNK         0.0230 
     16 S16        28.3868   23.7056    3.7230 S.3       12 UNK        -0.2608 
     17 C17        27.6857   25.3800    3.8753 C.3       12 UNK        -0.0989 
     18 CA         28.4765   26.5196    3.1842 C.3       5 UNK         0.0716 
     19 N          28.7572   26.2718    1.7580 N.am      5 UNK        -0.4135 
     20 C          29.4442   27.1101    0.9606 C.2       4 UNK         0.5031 
     21 O          29.9053   28.1834    1.3398 O.2       4 UNK        -0.5229 
     22 CA         29.5744   26.7490   -0.5247 C.3       4 UNK         0.0329 
     23 CB         30.6770   25.7086   -0.7541 C.3       4 UNK        -0.2001 
     24 N          28.3000   26.2683   -1.0518 N.am      4 UNK        -0.4303 
     25 C          27.3085   27.0761   -1.4573 C.2       3 UNK         0.5044 
     26 O          27.4140   28.2995   -1.5438 O.2       3 UNK        -0.5152 
     27 CA         25.9592   26.4207   -1.8066 C.3       3 UNK         0.0319 
     28 CB         25.8738   26.1341   -3.3141 C.3       3 UNK        -0.2001 
     29 N          25.7027   25.1849   -1.0637 N.am      3 UNK        -0.4354 
     30 C          25.5565   25.1084    0.2669 C.2       2 UNK         0.4964 
     31 O          25.5550   26.0870    1.0140 O.2       2 UNK        -0.5047 
     32 CA         25.4523   23.6964    0.8691 C.3       2 UNK         0.0288 
     33 CB         23.9826   23.2602    0.9721 C.3       2 UNK        -0.2113 
     34 N          26.2157   22.6745    0.1407 N.am      2 UNK        -0.4145 
     35 C          27.5454   22.6882   -0.0543 C.2       1 UNK         0.5006 
     36 O          28.2561   23.6295    0.2979 O.2       1 UNK        -0.5103 
     37 C          27.7519   27.8588    3.4456 C.2       5 UNK         0.5055 
     38 O          27.9798   28.4741    4.4878 O.2       5 UNK        -0.5220 
     39 N          26.9132   28.2937    2.4934 N.am      6 UNK        -0.4450 
     40 CA         26.2478   29.5981    2.4776 C.3       6 UNK         0.0367 
     41 CB         25.2816   29.6527    1.2839 C.3       6 UNK        -0.1929 
     42 C          27.2137   30.8005    2.4431 C.2       6 UNK         0.5070 
     43 O          26.8433   31.8738    2.9186 O.2       6 UNK        -0.5237 
     44 N          28.4366   30.6124    1.9262 N.am      7 UNK        -0.4739 
     45 CA         29.5137   31.6043    1.9193 C.3       7 UNK         0.0276 
     46 CB         30.2981   31.4933    0.5984 C.3       7 UNK        -0.1927 
     47 C          30.4145   31.4238    3.1546 C.2       7 UNK         0.5013 
     48 O          31.6401   31.3727    3.0298 O.2       7 UNK        -0.5193 
     49 N          29.7945   31.3505    4.3414 N.am      8 UNK        -0.4253 
     50 CA         30.4429   31.1278    5.6395 C.3       8 UNK         0.0242 
     51 CB         29.3729   31.0909    6.7417 C.3       8 UNK        -0.2000 
     52 C          31.5404   32.1482    5.9902 C.2       8 UNK         0.4948 
     53 O          32.5000   31.7876    6.6701 O.2       8 UNK        -0.5275 
     54 N          31.4107   33.3831    5.4849 N.am      9 UNK        -0.4246 
     55 CA         32.4213   34.4386    5.5895 C.3       9 UNK         0.0261 
     56 CB         31.8201   35.7639    5.0940 C.3       9 UNK        -0.1959 
     57 C          33.7284   34.1248    4.8340 C.2       9 UNK         0.5033 
     58 O          34.7761   34.6431    5.2234 O.2       9 UNK        -0.5390 
     59 N          33.6531   33.2963    3.7823 N.am      10 UNK        -0.4215 
     60 CA         34.8057   32.8147    3.0226 C.3       10 UNK         0.0240 
     61 CB         34.4411   32.7155    1.5311 C.3       10 UNK        -0.1982 
     62 C          35.2840   31.4579    3.5587 C.2       10 UNK         0.4970 
     63 O          36.4899   31.2756    3.7315 O.2       10 UNK        -0.4916 
     64 N          34.3438   30.5343    3.8037 N.am      11 UNK        -0.4279 
     65 CA         34.6304   29.1771    4.2970 C.3       11 UNK         0.1003 
     66 C          35.1263   29.1084    5.7688 C.2       11 UNK         0.5709 
     67 N          34.7762   30.0461    6.6394 N.am      11 UNK        -0.7358 
     68 O          35.8562   28.1861    6.1244 O.2       11 UNK        -0.4999 
     69 C69        33.4407   28.2117    4.0657 C.3       12 UNK        -0.0954 
     70 S70        33.0970   27.9674    2.2907 S.3       12 UNK        -0.2268 
     71 C71        33.8504   26.3334    1.9864 C.3       12 UNK         0.0203 
     72 H72        27.3404   20.5845    1.8024 H         1 UNK         0.0888 
     73 H73        26.6011   19.0242    2.0977 H         1 UNK         0.0888 
     74 H74        28.2704   19.0994    1.5494 H         1 UNK         0.0888 
     75 H75        26.9000   20.2161   -1.8745 H         1 UNK         0.3017 
     76 H76        28.3241   21.8208   -1.8074 H         1 UNK         0.0873 
     77 H77        29.5916   21.1323    0.8537 H         1 UNK         0.0745 
     78 H78        29.7547   20.0001   -0.4494 H         1 UNK         0.0745 
     79 H79        33.2175   21.8315   -0.1384 H         1 UNK         0.0705 
     80 H80        32.1475   20.8693    0.8438 H         1 UNK         0.0705 
     81 H81        33.6992   24.1311    0.4184 H         1 UNK         0.1334 
     82 H82        31.8557   25.8986    3.8706 H         1 UNK         0.1417 
     83 H83        30.5991   22.0479    2.5159 H         1 UNK         0.1562 
     84 H84        30.1182   24.7548    5.0671 H         1 UNK         0.0748 
     85 H85        30.2899   23.0197    5.0244 H         1 UNK         0.0748 
     86 H86        27.5845   25.5891    4.9425 H         1 UNK         0.0940 
     87 H87        26.6664   25.3417    3.4871 H         1 UNK         0.0940 
     88 H88        29.4482   26.6055    3.6720 H         1 UNK         0.0703 
     89 H89        28.4551   25.3783    1.3831 H         1 UNK         0.3081 
     90 H90        29.8624   27.6527   -1.0668 H         1 UNK         0.0719 
     91 H91        30.7459   25.4183   -1.8022 H         1 UNK         0.0809 
     92 H92        31.6478   26.1097   -0.4612 H         1 UNK         0.0809 
     93 H93        30.5090   24.8080   -0.1654 H         1 UNK         0.0809 
     94 H94        28.1209   25.2766   -0.9478 H         1 UNK         0.2990 
     95 H95        25.1732   27.1334   -1.5474 H         1 UNK         0.0690 
     96 H96        26.6245   25.4091   -3.6314 H         1 UNK         0.0788 
     97 H97        26.0350   27.0446   -3.8933 H         1 UNK         0.0788 
     98 H98        24.8928   25.7468   -3.5902 H         1 UNK         0.0788 
     99 H99        25.6817   24.3281   -1.5970 H         1 UNK         0.2993 
    100 H100       25.8630   23.7458    1.8789 H         1 UNK         0.0949 
    101 H101       23.5214   23.1555   -0.0108 H         1 UNK         0.0767 
    102 H102       23.8871   22.3069    1.4925 H         1 UNK         0.0767 
    103 H103       23.3971   23.9917    1.5312 H         1 UNK         0.0767 
    104 H104       25.6945   21.8804   -0.2023 H         1 UNK         0.3013 
    105 H105       26.7101   27.6694    1.7197 H         1 UNK         0.3121 
    106 H106       25.6632   29.6774    3.3964 H         1 UNK         0.0774 
    107 H107       24.7328   30.5953    1.2681 H         1 UNK         0.0815 
    108 H108       25.8112   29.5674    0.3343 H         1 UNK         0.0815 
    109 H109       24.5455   28.8497    1.3304 H         1 UNK         0.0815 
    110 H110       28.7118   29.6770    1.6352 H         1 UNK         0.2987 
    111 H111       29.0933   32.6109    1.9699 H         1 UNK         0.0949 
    112 H112       30.8136   30.5359    0.5133 H         1 UNK         0.0806 
    113 H113       29.6409   31.5982   -0.2647 H         1 UNK         0.0806 
    114 H114       31.0549   32.2755    0.5276 H         1 UNK         0.0806 
    115 H115       28.7842   31.3892    4.3426 H         1 UNK         0.3010 
    116 H116       30.9188   30.1465    5.5942 H         1 UNK         0.0829 
    117 H117       29.8233   30.9016    7.7173 H         1 UNK         0.0813 
    118 H118       28.8294   32.0340    6.8097 H         1 UNK         0.0813 
    119 H119       28.6477   30.2965    6.5630 H         1 UNK         0.0813 
    120 H120       30.5833   33.5931    4.9460 H         1 UNK         0.3038 
    121 H121       32.6755   34.5516    6.6457 H         1 UNK         0.0769 
    122 H122       32.5409   36.5776    5.1871 H         1 UNK         0.0811 
    123 H123       30.9418   36.0446    5.6756 H         1 UNK         0.0811 
    124 H124       31.5267   35.7079    4.0449 H         1 UNK         0.0811 
    125 H125       32.7626   32.8614    3.5591 H         1 UNK         0.3204 
    126 H126       35.6321   33.5230    3.1147 H         1 UNK         0.0748 
    127 H127       35.2996   32.3891    0.9427 H         1 UNK         0.0771 
    128 H128       33.6354   32.0026    1.3517 H         1 UNK         0.0771 
    129 H129       34.1261   33.6815    1.1363 H         1 UNK         0.0771 
    130 H130       33.3728   30.7432    3.5911 H         1 UNK         0.2980 
    131 H131       35.4619   28.7989    3.6984 H         1 UNK         0.0545 
    132 H132       34.0982   30.7643    6.4040 H         1 UNK         0.3459 
    133 H133       35.1187   29.9834    7.5843 H         1 UNK         0.3459 
    134 H134       33.6358   27.2413    4.5253 H         1 UNK         0.0616 
    135 H135       32.5376   28.5978    4.5408 H         1 UNK         0.0616 
    136 H136       34.7054   26.1889    2.6477 H         1 UNK         0.0634 
    137 H137       34.2535   26.3541    0.9729 H         1 UNK         0.0634 
@<TRIPOS>BOND
     1    1    2 1    
     2    1   72 1    
     3    1   73 1    
     4    1   74 1    
     5    2    3 2    
     6    2    4 am   BACKBONE|DICT|INTERRES
     7    4    5 1    
     8    4   75 1    
     9    5    6 1    
    10    5   35 1    
    11    5   76 1    
    12    6    7 1    
    13    6   77 1    
    14    6   78 1    
    15    7    8 1    
    16    8    9 1    
    17    8   79 1    
    18    8   80 1    
    19    9   10 ar   
    20    9   14 ar   
    21   10   11 ar   
    22   10   81 1    
    23   11   12 ar   
    24   11   71 1    
    25   12   13 ar   
    26   12   82 1    
    27   13   14 ar   
    28   13   15 1    
    29   14   83 1    
    30   15   16 1    
    31   15   84 1    
    32   15   85 1    
    33   16   17 1    
    34   17   18 1    
    35   17   86 1    
    36   17   87 1    
    37   18   19 1    
    38   18   37 1    
    39   18   88 1    
    40   19   20 am   BACKBONE|DICT|INTERRES
    41   19   89 1    
    42   20   21 2    
    43   20   22 1    
    44   22   23 1    
    45   22   24 1    
    46   22   90 1    
    47   23   91 1    
    48   23   92 1    
    49   23   93 1    
    50   24   25 am   BACKBONE|DICT|INTERRES
    51   24   94 1    
    52   25   26 2    
    53   25   27 1    
    54   27   28 1    
    55   27   29 1    
    56   27   95 1    
    57   28   96 1    
    58   28   97 1    
    59   28   98 1    
    60   29   30 am   BACKBONE|DICT|INTERRES
    61   29   99 1    
    62   30   31 2    
    63   30   32 1    
    64   32   33 1    
    65   32   34 1    
    66   32  100 1    
    67   33  101 1    
    68   33  102 1    
    69   33  103 1    
    70   34   35 am   BACKBONE|DICT|INTERRES
    71   34  104 1    
    72   35   36 2    
    73   37   38 2    
    74   37   39 am   BACKBONE|DICT|INTERRES
    75   39   40 1    
    76   39  105 1    
    77   40   41 1    
    78   40   42 1    
    79   40  106 1    
    80   41  107 1    
    81   41  108 1    
    82   41  109 1    
    83   42   43 2    
    84   42   44 am   BACKBONE|DICT|INTERRES
    85   44   45 1    
    86   44  110 1    
    87   45   46 1    
    88   45   47 1    
    89   45  111 1    
    90   46  112 1    
    91   46  113 1    
    92   46  114 1    
    93   47   48 2    
    94   47   49 am   BACKBONE|DICT|INTERRES
    95   49   50 1    
    96   49  115 1    
    97   50   51 1    
    98   50   52 1    
    99   50  116 1    
   100   51  117 1    
   101   51  118 1    
   102   51  119 1    
   103   52   53 2    
   104   52   54 am   BACKBONE|DICT|INTERRES
   105   54   55 1    
   106   54  120 1    
   107   55   56 1    
   108   55   57 1    
   109   55  121 1    
   110   56  122 1    
   111   56  123 1    
   112   56  124 1    
   113   57   58 2    
   114   57   59 am   BACKBONE|DICT|INTERRES
   115   59   60 1    
   116   59  125 1    
   117   60   61 1    
   118   60   62 1    
   119   60  126 1    
   120   61  127 1    
   121   61  128 1    
   122   61  129 1    
   123   62   63 2    
   124   62   64 am   BACKBONE|DICT|INTERRES
   125   64   65 1    
   126   64  130 1    
   127   65   66 1    
   128   65   69 1    
   129   65  131 1    
   130   66   67 am   BACKBONE|DICT|INTERRES
   131   66   68 2    
   132   67  132 1    
   133   67  133 1    
   134   69   70 1    
   135   69  134 1    
   136   69  135 1    
   137   70   71 1    
   138   71  136 1    
   139   71  137 1    
@<TRIPOS>SUBSTRUCTURE
     1 UNK         1 GROUP             0       ****    0 ROOT    
