@<TRIPOS>MOLECULE
3R136
137   139    1
SMALL
USER_CHARGES


@<TRIPOS>ATOM
      1 CA         30.2592   18.1788    1.4835 C.3       0 UNK        -0.1979 
      2 C          29.4767   19.4394    1.8242 C.2       0 UNK         0.4864 
      3 O          28.4044   19.3363    2.4212 O.2       0 UNK        -0.5359 
      4 N          30.0247   20.6072    1.4533 N.am      1 UNK        -0.4318 
      5 CA         29.4840   21.9672    1.6103 C.3       1 UNK         0.0824 
      6 C6         29.0631   22.3473    3.0591 C.3       12 UNK        -0.0944 
      7 S7         30.3558   22.0118    4.3112 S.3       12 UNK        -0.2672 
      8 C8         30.9970   23.6696    4.7021 C.3       12 UNK         0.0333 
      9 C9         31.9576   24.1672    3.6330 C.ar      12 UNK        -0.0807 
     10 C10        33.3208   23.8727    3.7150 C.ar      12 UNK        -0.0894 
     11 C11        34.2037   24.3375    2.7364 C.ar      12 UNK        -0.0804 
     12 C12        33.7126   25.1006    1.6729 C.ar      12 UNK        -0.0824 
     13 C13        32.3505   25.4004    1.5706 C.ar      12 UNK        -0.0762 
     14 C14        31.4810   24.9266    2.5634 C.ar      12 UNK        -0.0782 
     15 C15        31.8861   26.2507    0.3838 C.3       12 UNK         0.0230 
     16 S16        30.0787   26.3785    0.1518 S.3       12 UNK        -0.2608 
     17 C17        29.6101   27.5021    1.5110 C.3       12 UNK        -0.0989 
     18 CA         28.9390   28.8061    1.0271 C.3       5 UNK         0.0716 
     19 N          27.7964   28.5135    0.1608 N.am      5 UNK        -0.4135 
     20 C          26.9266   29.3704   -0.3908 C.2       4 UNK         0.5031 
     21 O          27.0264   30.5960   -0.3223 O.2       4 UNK        -0.5229 
     22 CA         25.6972   28.7365   -1.0729 C.3       4 UNK         0.0329 
     23 CB         25.8727   28.7354   -2.5994 C.3       4 UNK        -0.2001 
     24 N          25.4137   27.3653   -0.6209 N.am      4 UNK        -0.4303 
     25 C          25.1517   26.9851    0.6384 C.2       3 UNK         0.5044 
     26 O          25.0544   27.7756    1.5777 O.2       3 UNK        -0.5152 
     27 CA         25.0776   25.4732    0.9214 C.3       3 UNK         0.0319 
     28 CB         23.6856   24.9065    0.5809 C.3       3 UNK        -0.2001 
     29 N          26.1621   24.6856    0.3062 N.am      3 UNK        -0.4354 
     30 C          26.3809   24.4228   -0.9922 C.2       2 UNK         0.4964 
     31 O          25.6642   24.8531   -1.8970 O.2       2 UNK        -0.5047 
     32 CA         27.6153   23.5767   -1.3664 C.3       2 UNK         0.0288 
     33 CB         28.4298   24.2543   -2.4844 C.3       2 UNK        -0.2113 
     34 N          28.5128   23.2678   -0.2433 N.am      2 UNK        -0.4145 
     35 C          28.3507   22.2304    0.5914 C.2       1 UNK         0.5006 
     36 O          27.3543   21.5057    0.5668 O.2       1 UNK        -0.5103 
     37 C          28.5904   29.6797    2.2532 C.2       5 UNK         0.5055 
     38 O          29.4780   30.3590    2.7736 O.2       5 UNK        -0.5220 
     39 N          27.3171   29.6656    2.6842 N.am      6 UNK        -0.4450 
     40 CA         26.7652   30.4955    3.7597 C.3       6 UNK         0.0367 
     41 CB         25.2764   30.1622    3.9415 C.3       6 UNK        -0.1929 
     42 C          26.9534   32.0109    3.5551 C.2       6 UNK         0.5070 
     43 O          26.9790   32.7466    4.5419 O.2       6 UNK        -0.5237 
     44 N          27.1536   32.4562    2.3054 N.am      7 UNK        -0.4739 
     45 CA         27.5568   33.8175    1.9352 C.3       7 UNK         0.0276 
     46 CB         27.2039   34.0477    0.4539 C.3       7 UNK        -0.1927 
     47 C          29.0464   34.1085    2.2424 C.2       7 UNK         0.5013 
     48 O          29.7552   34.6470    1.3904 O.2       7 UNK        -0.5193 
     49 N          29.4868   33.7478    3.4572 N.am      8 UNK        -0.4253 
     50 CA         30.8170   33.9453    4.0465 C.3       8 UNK         0.0242 
     51 CB         31.0509   35.4438    4.3365 C.3       8 UNK        -0.2000 
     52 C          31.9776   33.3055    3.2540 C.2       8 UNK         0.4948 
     53 O          33.0811   33.8558    3.2527 O.2       8 UNK        -0.5275 
     54 N          31.7255   32.1584    2.6083 N.am      9 UNK        -0.4246 
     55 CA         32.7072   31.4284    1.7967 C.3       9 UNK         0.0261 
     56 CB         32.2091   31.3800    0.3419 C.3       9 UNK        -0.1959 
     57 C          33.0105   30.0180    2.3361 C.2       9 UNK         0.5033 
     58 O          33.8871   29.3498    1.7857 O.2       9 UNK        -0.5390 
     59 N          32.2997   29.5774    3.3838 N.am      10 UNK        -0.4215 
     60 CA         32.4978   28.2868    4.0462 C.3       10 UNK         0.0240 
     61 CB         31.3089   28.0089    4.9826 C.3       10 UNK        -0.1982 
     62 C          33.8189   28.2248    4.8275 C.2       10 UNK         0.4970 
     63 O          34.2633   29.2422    5.3648 O.2       10 UNK        -0.4916 
     64 N          34.3907   27.0182    4.9110 N.am      11 UNK        -0.4279 
     65 CA         35.6245   26.7272    5.6597 C.3       11 UNK         0.1003 
     66 C          35.4681   26.7490    7.2093 C.2       11 UNK         0.5709 
     67 N          34.2597   26.7661    7.7602 N.am      11 UNK        -0.7358 
     68 O          36.4664   26.7568    7.9257 O.2       11 UNK        -0.4999 
     69 C69        36.2822   25.4012    5.1950 C.3       12 UNK        -0.0954 
     70 S70        36.6847   25.3911    3.4150 S.3       12 UNK        -0.2268 
     71 C71        35.6852   23.9964    2.8069 C.3       12 UNK         0.0203 
     72 H72        31.1921   18.4022    0.9662 H         1 UNK         0.0888 
     73 H73        30.5005   17.6304    2.3938 H         1 UNK         0.0888 
     74 H74        29.6635   17.5296    0.8422 H         1 UNK         0.0888 
     75 H75        30.9100   20.5738    0.9675 H         1 UNK         0.3017 
     76 H76        30.3155   22.6205    1.3424 H         1 UNK         0.0873 
     77 H77        28.1702   21.7934    3.3540 H         1 UNK         0.0745 
     78 H78        28.7808   23.3999    3.1079 H         1 UNK         0.0745 
     79 H79        30.1703   24.3686    4.8382 H         1 UNK         0.0705 
     80 H80        31.5123   23.6248    5.6628 H         1 UNK         0.0705 
     81 H81        33.6908   23.2734    4.5360 H         1 UNK         0.1334 
     82 H82        34.3988   25.4626    0.9188 H         1 UNK         0.1417 
     83 H83        30.4245   25.1363    2.5214 H         1 UNK         0.1562 
     84 H84        32.3042   25.8278   -0.5308 H         1 UNK         0.0748 
     85 H85        32.3056   27.2539    0.4760 H         1 UNK         0.0748 
     86 H86        30.5013   27.7406    2.0892 H         1 UNK         0.0940 
     87 H87        28.9451   26.9577    2.1848 H         1 UNK         0.0940 
     88 H88        29.6536   29.3611    0.4208 H         1 UNK         0.0703 
     89 H89        27.6290   27.5317    0.0017 H         1 UNK         0.3081 
     90 H90        24.8324   29.3537   -0.8218 H         1 UNK         0.0719 
     91 H91        26.0641   29.7428   -2.9719 H         1 UNK         0.0809 
     92 H92        26.7094   28.1074   -2.9088 H         1 UNK         0.0809 
     93 H93        24.9763   28.3707   -3.1013 H         1 UNK         0.0809 
     94 H94        25.4729   26.6250   -1.3166 H         1 UNK         0.2990 
     95 H95        25.2143   25.3566    1.9978 H         1 UNK         0.0690 
     96 H96        22.9080   25.4285    1.1401 H         1 UNK         0.0788 
     97 H97        23.6150   23.8496    0.8381 H         1 UNK         0.0788 
     98 H98        23.4448   25.0107   -0.4774 H         1 UNK         0.0788 
     99 H99        26.8246   24.2947    0.9600 H         1 UNK         0.2993 
    100 H100       27.2300   22.6373   -1.7697 H         1 UNK         0.0949 
    101 H101       29.3059   23.6641   -2.7538 H         1 UNK         0.0767 
    102 H102       28.7689   25.2491   -2.1968 H         1 UNK         0.0767 
    103 H103       27.8322   24.3685   -3.3899 H         1 UNK         0.0767 
    104 H104       29.3320   23.8545   -0.1572 H         1 UNK         0.3013 
    105 H105       26.6528   29.0655    2.2073 H         1 UNK         0.3121 
    106 H106       27.2926   30.2279    4.6774 H         1 UNK         0.0774 
    107 H107       24.8390   30.7477    4.7515 H         1 UNK         0.0815 
    108 H108       24.7037   30.3740    3.0375 H         1 UNK         0.0815 
    109 H109       25.1322   29.1103    4.1891 H         1 UNK         0.0815 
    110 H110       27.1356   31.7795    1.5503 H         1 UNK         0.2987 
    111 H111       26.9714   34.5232    2.5287 H         1 UNK         0.0949 
    112 H112       27.4201   35.0733    0.1520 H         1 UNK         0.0806 
    113 H113       27.7723   33.3858   -0.2011 H         1 UNK         0.0806 
    114 H114       26.1443   33.8736    0.2661 H         1 UNK         0.0806 
    115 H115       28.7972   33.3163    4.0661 H         1 UNK         0.3010 
    116 H116       30.7973   33.4270    5.0063 H         1 UNK         0.0829 
    117 H117       31.1334   36.0233    3.4163 H         1 UNK         0.0813 
    118 H118       30.2377   35.8659    4.9270 H         1 UNK         0.0813 
    119 H119       31.9708   35.5975    4.9021 H         1 UNK         0.0813 
    120 H120       30.7942   31.7512    2.6618 H         1 UNK         0.3038 
    121 H121       33.6656   31.9513    1.7954 H         1 UNK         0.0769 
    122 H122       31.2232   30.9267    0.2673 H         1 UNK         0.0811 
    123 H123       32.8863   30.8061   -0.2923 H         1 UNK         0.0811 
    124 H124       32.1428   32.3827   -0.0808 H         1 UNK         0.0811 
    125 H125       31.5822   30.1783    3.7633 H         1 UNK         0.3204 
    126 H126       32.5260   27.5197    3.2736 H         1 UNK         0.0748 
    127 H127       31.3860   27.0166    5.4288 H         1 UNK         0.0771 
    128 H128       31.2629   28.7318    5.7983 H         1 UNK         0.0771 
    129 H129       30.3577   28.0483    4.4528 H         1 UNK         0.0771 
    130 H130       33.9740   26.2346    4.4286 H         1 UNK         0.2980 
    131 H131       36.3287   27.5293    5.4298 H         1 UNK         0.0545 
    132 H132       34.1772   26.7845    8.7644 H         1 UNK         0.3459 
    133 H133       33.4339   26.7641    7.1853 H         1 UNK         0.3459 
    134 H134       35.6411   24.5526    5.4377 H         1 UNK         0.0616 
    135 H135       37.2175   25.2325    5.7319 H         1 UNK         0.0616 
    136 H136       36.0384   23.7239    1.8113 H         1 UNK         0.0634 
    137 H137       35.8553   23.1219    3.4370 H         1 UNK         0.0634 
@<TRIPOS>BOND
     1    1    2 1    
     2    1   72 1    
     3    1   73 1    
     4    1   74 1    
     5    2    3 2    
     6    2    4 am   BACKBONE|DICT|INTERRES
     7    4    5 1    
     8    4   75 1    
     9    5    6 1    
    10    5   35 1    
    11    5   76 1    
    12    6    7 1    
    13    6   77 1    
    14    6   78 1    
    15    7    8 1    
    16    8    9 1    
    17    8   79 1    
    18    8   80 1    
    19    9   10 ar   
    20    9   14 ar   
    21   10   11 ar   
    22   10   81 1    
    23   11   12 ar   
    24   11   71 1    
    25   12   13 ar   
    26   12   82 1    
    27   13   14 ar   
    28   13   15 1    
    29   14   83 1    
    30   15   16 1    
    31   15   84 1    
    32   15   85 1    
    33   16   17 1    
    34   17   18 1    
    35   17   86 1    
    36   17   87 1    
    37   18   19 1    
    38   18   37 1    
    39   18   88 1    
    40   19   20 am   BACKBONE|DICT|INTERRES
    41   19   89 1    
    42   20   21 2    
    43   20   22 1    
    44   22   23 1    
    45   22   24 1    
    46   22   90 1    
    47   23   91 1    
    48   23   92 1    
    49   23   93 1    
    50   24   25 am   BACKBONE|DICT|INTERRES
    51   24   94 1    
    52   25   26 2    
    53   25   27 1    
    54   27   28 1    
    55   27   29 1    
    56   27   95 1    
    57   28   96 1    
    58   28   97 1    
    59   28   98 1    
    60   29   30 am   BACKBONE|DICT|INTERRES
    61   29   99 1    
    62   30   31 2    
    63   30   32 1    
    64   32   33 1    
    65   32   34 1    
    66   32  100 1    
    67   33  101 1    
    68   33  102 1    
    69   33  103 1    
    70   34   35 am   BACKBONE|DICT|INTERRES
    71   34  104 1    
    72   35   36 2    
    73   37   38 2    
    74   37   39 am   BACKBONE|DICT|INTERRES
    75   39   40 1    
    76   39  105 1    
    77   40   41 1    
    78   40   42 1    
    79   40  106 1    
    80   41  107 1    
    81   41  108 1    
    82   41  109 1    
    83   42   43 2    
    84   42   44 am   BACKBONE|DICT|INTERRES
    85   44   45 1    
    86   44  110 1    
    87   45   46 1    
    88   45   47 1    
    89   45  111 1    
    90   46  112 1    
    91   46  113 1    
    92   46  114 1    
    93   47   48 2    
    94   47   49 am   BACKBONE|DICT|INTERRES
    95   49   50 1    
    96   49  115 1    
    97   50   51 1    
    98   50   52 1    
    99   50  116 1    
   100   51  117 1    
   101   51  118 1    
   102   51  119 1    
   103   52   53 2    
   104   52   54 am   BACKBONE|DICT|INTERRES
   105   54   55 1    
   106   54  120 1    
   107   55   56 1    
   108   55   57 1    
   109   55  121 1    
   110   56  122 1    
   111   56  123 1    
   112   56  124 1    
   113   57   58 2    
   114   57   59 am   BACKBONE|DICT|INTERRES
   115   59   60 1    
   116   59  125 1    
   117   60   61 1    
   118   60   62 1    
   119   60  126 1    
   120   61  127 1    
   121   61  128 1    
   122   61  129 1    
   123   62   63 2    
   124   62   64 am   BACKBONE|DICT|INTERRES
   125   64   65 1    
   126   64  130 1    
   127   65   66 1    
   128   65   69 1    
   129   65  131 1    
   130   66   67 am   BACKBONE|DICT|INTERRES
   131   66   68 2    
   132   67  132 1    
   133   67  133 1    
   134   69   70 1    
   135   69  134 1    
   136   69  135 1    
   137   70   71 1    
   138   71  136 1    
   139   71  137 1    
@<TRIPOS>SUBSTRUCTURE
     1 UNK         1 GROUP             0       ****    0 ROOT    
