@<TRIPOS>MOLECULE
3R136
137   139    1
SMALL
USER_CHARGES


@<TRIPOS>ATOM
      1 CA         31.2068   20.2581   -3.2900 C.3       0 UNK        -0.1979 
      2 C          30.9258   21.3917   -2.3148 C.2       0 UNK         0.4864 
      3 O          31.1963   22.5504   -2.6304 O.2       0 UNK        -0.5359 
      4 N          30.3734   21.0681   -1.1371 N.am      1 UNK        -0.4318 
      5 CA         30.0436   22.0215   -0.0665 C.3       1 UNK         0.0824 
      6 C6         30.1555   21.3541    1.3363 C.3       12 UNK        -0.0944 
      7 S7         31.0461   22.4029    2.5338 S.3       12 UNK        -0.2672 
      8 C8         29.6941   22.9395    3.6403 C.3       12 UNK         0.0333 
      9 C9         30.0246   24.1017    4.5816 C.ar      12 UNK        -0.0807 
     10 C10        31.2208   24.8293    4.5152 C.ar      12 UNK        -0.0894 
     11 C11        31.4730   25.8832    5.3999 C.ar      12 UNK        -0.0804 
     12 C12        30.5041   26.2346    6.3433 C.ar      12 UNK        -0.0824 
     13 C13        29.2929   25.5406    6.4032 C.ar      12 UNK        -0.0762 
     14 C14        29.0687   24.4692    5.5327 C.ar      12 UNK        -0.0782 
     15 C15        28.2129   25.9579    7.3930 C.3       12 UNK         0.0230 
     16 S16        27.4578   27.5641    6.9665 S.3       12 UNK        -0.2608 
     17 C17        26.9807   27.3314    5.2187 C.3       12 UNK        -0.0989 
     18 CA         27.8995   28.1521    4.2704 C.3       5 UNK         0.0716 
     19 N          28.2613   27.4208    3.0524 N.am      5 UNK        -0.4135 
     20 C          29.2201   27.8095    2.1977 C.2       4 UNK         0.5031 
     21 O          29.9580   28.7762    2.3878 O.2       4 UNK        -0.5229 
     22 CA         29.3595   27.0160    0.8884 C.3       4 UNK         0.0329 
     23 CB         30.4051   25.9033    1.0417 C.3       4 UNK        -0.2001 
     24 N          28.0896   26.4605    0.4020 N.am      4 UNK        -0.4303 
     25 C          27.0605   27.2149   -0.0191 C.2       3 UNK         0.5044 
     26 O          27.0845   28.4458    0.0073 O.2       3 UNK        -0.5152 
     27 CA         25.7723   26.5099   -0.4952 C.3       3 UNK         0.0319 
     28 CB         25.1004   27.2532   -1.6698 C.3       3 UNK        -0.2001 
     29 N          25.9245   25.0798   -0.7911 N.am      3 UNK        -0.4354 
     30 C          26.6578   24.5158   -1.7620 C.2       2 UNK         0.4964 
     31 O          27.3189   25.1384   -2.5949 O.2       2 UNK        -0.5047 
     32 CA         26.6813   22.9762   -1.7701 C.3       2 UNK         0.0288 
     33 CB         26.2808   22.4219   -3.1482 C.3       2 UNK        -0.2113 
     34 N          27.9911   22.4352   -1.3962 N.am      2 UNK        -0.4145 
     35 C          28.6763   22.7189   -0.2767 C.2       1 UNK         0.5006 
     36 O          28.2556   23.4927    0.5852 O.2       1 UNK        -0.5103 
     37 C          27.2852   29.5250    3.9296 C.2       5 UNK         0.5055 
     38 O          27.7265   30.5445    4.4638 O.2       5 UNK        -0.5220 
     39 N          26.3046   29.5157    3.0114 N.am      6 UNK        -0.4450 
     40 CA         25.5929   30.6957    2.5123 C.3       6 UNK         0.0367 
     41 CB         24.4271   30.2545    1.6131 C.3       6 UNK        -0.1929 
     42 C          26.5069   31.6834    1.7707 C.2       6 UNK         0.5070 
     43 O          26.3165   32.8927    1.8981 O.2       6 UNK        -0.5237 
     44 N          27.5258   31.1662    1.0716 N.am      7 UNK        -0.4739 
     45 CA         28.6047   31.9190    0.4210 C.3       7 UNK         0.0276 
     46 CB         29.2690   31.0086   -0.6287 C.3       7 UNK        -0.1927 
     47 C          29.6319   32.5151    1.4140 C.2       7 UNK         0.5013 
     48 O          30.8298   32.5106    1.1278 O.2       7 UNK        -0.5193 
     49 N          29.1442   33.0235    2.5555 N.am      8 UNK        -0.4253 
     50 CA         29.8767   33.6423    3.6653 C.3       8 UNK         0.0242 
     51 CB         30.4375   35.0155    3.2364 C.3       8 UNK        -0.2000 
     52 C          30.9471   32.7201    4.2827 C.2       8 UNK         0.4948 
     53 O          32.0503   33.1853    4.5760 O.2       8 UNK        -0.5275 
     54 N          30.5931   31.4378    4.4729 N.am      9 UNK        -0.4246 
     55 CA         31.4387   30.3515    4.9854 C.3       9 UNK         0.0261 
     56 CB         31.7388   30.5532    6.4856 C.3       9 UNK        -0.1959 
     57 C          32.7105   30.1590    4.1377 C.2       9 UNK         0.5033 
     58 O          33.8225   30.4002    4.6147 O.2       9 UNK        -0.5390 
     59 N          32.5206   29.7179    2.8876 N.am      10 UNK        -0.4215 
     60 CA         33.5508   29.4981    1.8643 C.3       10 UNK         0.0240 
     61 CB         32.8650   29.4207    0.4870 C.3       10 UNK        -0.1982 
     62 C          34.4622   28.2799    2.1404 C.2       10 UNK         0.4970 
     63 O          34.6423   27.4296    1.2671 O.2       10 UNK        -0.4916 
     64 N          35.0197   28.2239    3.3524 N.am      11 UNK        -0.4279 
     65 CA         35.9611   27.2057    3.8392 C.3       11 UNK         0.1003 
     66 C          37.4505   27.6400    3.7054 C.2       11 UNK         0.5709 
     67 N          37.7600   28.8493    3.2507 N.am      11 UNK        -0.7358 
     68 O          38.3484   26.8548    4.0012 O.2       11 UNK        -0.4999 
     69 C69        35.6082   26.7915    5.2959 C.3       12 UNK        -0.0954 
     70 S70        34.2390   25.5903    5.3736 S.3       12 UNK        -0.2268 
     71 C71        32.7732   26.6685    5.3063 C.3       12 UNK         0.0203 
     72 H72        30.6592   20.4167   -4.2187 H         1 UNK         0.0888 
     73 H73        32.2705   20.2206   -3.5238 H         1 UNK         0.0888 
     74 H74        30.9151   19.2890   -2.8853 H         1 UNK         0.0888 
     75 H75        30.1627   20.0992   -0.9403 H         1 UNK         0.3017 
     76 H76        30.7835   22.8231   -0.1204 H         1 UNK         0.0873 
     77 H77        29.1823   21.0603    1.7354 H         1 UNK         0.0745 
     78 H78        30.7275   20.4267    1.2744 H         1 UNK         0.0745 
     79 H79        28.8332   23.2304    3.0400 H         1 UNK         0.0705 
     80 H80        29.3804   22.0787    4.2327 H         1 UNK         0.0705 
     81 H81        31.9726   24.5866    3.7786 H         1 UNK         0.1334 
     82 H82        30.6775   27.0628    7.0171 H         1 UNK         0.1417 
     83 H83        28.1337   23.9272    5.5824 H         1 UNK         0.1562 
     84 H84        28.6449   26.0236    8.3926 H         1 UNK         0.0748 
     85 H85        27.4268   25.2033    7.4503 H         1 UNK         0.0748 
     86 H86        25.9269   27.5960    5.1082 H         1 UNK         0.0940 
     87 H87        27.0224   26.2687    4.9811 H         1 UNK         0.0940 
     88 H88        28.8417   28.3429    4.7865 H         1 UNK         0.0703 
     89 H89        27.7190   26.6016    2.8234 H         1 UNK         0.3081 
     90 H90        29.7239   27.7105    0.1290 H         1 UNK         0.0719 
     91 H91        31.3571   26.3017    1.3963 H         1 UNK         0.0809 
     92 H92        30.5958   25.4043    0.0917 H         1 UNK         0.0809 
     93 H93        30.0811   25.1505    1.7584 H         1 UNK         0.0809 
     94 H94        28.0091   25.4476    0.3782 H         1 UNK         0.2990 
     95 H95        25.0862   26.5618    0.3513 H         1 UNK         0.0690 
     96 H96        24.1800   26.7582   -1.9792 H         1 UNK         0.0788 
     97 H97        25.7567   27.3166   -2.5382 H         1 UNK         0.0788 
     98 H98        24.8375   28.2743   -1.3909 H         1 UNK         0.0788 
     99 H99        25.4574   24.4609   -0.1421 H         1 UNK         0.2993 
    100 H100       25.9583   22.6091   -1.0386 H         1 UNK         0.0949 
    101 H101       26.2109   21.3339   -3.1348 H         1 UNK         0.0767 
    102 H102       25.3058   22.8043   -3.4538 H         1 UNK         0.0767 
    103 H103       26.9978   22.7032   -3.9209 H         1 UNK         0.0767 
    104 H104       28.4246   21.8121   -2.0606 H         1 UNK         0.3013 
    105 H105       26.0457   28.6334    2.5972 H         1 UNK         0.3121 
    106 H106       25.1789   31.2190    3.3768 H         1 UNK         0.0774 
    107 H107       24.7762   29.7144    0.7327 H         1 UNK         0.0815 
    108 H108       23.8611   31.1178    1.2601 H         1 UNK         0.0815 
    109 H109       23.7305   29.6106    2.1501 H         1 UNK         0.0815 
    110 H110       27.5661   30.1562    0.9745 H         1 UNK         0.2987 
    111 H111       28.1567   32.7636   -0.1066 H         1 UNK         0.0949 
    112 H112       29.7676   30.1603   -0.1594 H         1 UNK         0.0806 
    113 H113       28.5376   30.6168   -1.3359 H         1 UNK         0.0806 
    114 H114       30.0183   31.5513   -1.2064 H         1 UNK         0.0806 
    115 H115       28.1347   32.9921    2.6596 H         1 UNK         0.3010 
    116 H116       29.1423   33.8180    4.4529 H         1 UNK         0.0829 
    117 H117       31.2117   34.9145    2.4749 H         1 UNK         0.0813 
    118 H118       29.6532   35.6569    2.8346 H         1 UNK         0.0813 
    119 H119       30.8806   35.5403    4.0837 H         1 UNK         0.0813 
    120 H120       29.6469   31.1685    4.2182 H         1 UNK         0.3038 
    121 H121       30.8621   29.4316    4.8929 H         1 UNK         0.0769 
    122 H122       32.3188   29.7202    6.8834 H         1 UNK         0.0811 
    123 H123       32.3129   31.4622    6.6678 H         1 UNK         0.0811 
    124 H124       30.8190   30.6150    7.0671 H         1 UNK         0.0811 
    125 H125       31.5632   29.4925    2.6119 H         1 UNK         0.3204 
    126 H126       34.1996   30.3761    1.8573 H         1 UNK         0.0748 
    127 H127       33.5978   29.3199   -0.3146 H         1 UNK         0.0771 
    128 H128       32.1874   28.5688    0.4223 H         1 UNK         0.0771 
    129 H129       32.2887   30.3228    0.2819 H         1 UNK         0.0771 
    130 H130       34.8059   28.9842    3.9948 H         1 UNK         0.2980 
    131 H131       35.8764   26.3183    3.2093 H         1 UNK         0.0545 
    132 H132       38.7298   29.1096    3.1634 H         1 UNK         0.3459 
    133 H133       37.0367   29.5028    2.9981 H         1 UNK         0.3459 
    134 H134       36.4554   26.3047    5.7825 H         1 UNK         0.0616 
    135 H135       35.3748   27.6630    5.9103 H         1 UNK         0.0616 
    136 H136       32.8413   27.4122    6.1011 H         1 UNK         0.0634 
    137 H137       32.7638   27.2071    4.3612 H         1 UNK         0.0634 
@<TRIPOS>BOND
     1    1    2 1    
     2    1   72 1    
     3    1   73 1    
     4    1   74 1    
     5    2    3 2    
     6    2    4 am   BACKBONE|DICT|INTERRES
     7    4    5 1    
     8    4   75 1    
     9    5    6 1    
    10    5   35 1    
    11    5   76 1    
    12    6    7 1    
    13    6   77 1    
    14    6   78 1    
    15    7    8 1    
    16    8    9 1    
    17    8   79 1    
    18    8   80 1    
    19    9   10 ar   
    20    9   14 ar   
    21   10   11 ar   
    22   10   81 1    
    23   11   12 ar   
    24   11   71 1    
    25   12   13 ar   
    26   12   82 1    
    27   13   14 ar   
    28   13   15 1    
    29   14   83 1    
    30   15   16 1    
    31   15   84 1    
    32   15   85 1    
    33   16   17 1    
    34   17   18 1    
    35   17   86 1    
    36   17   87 1    
    37   18   19 1    
    38   18   37 1    
    39   18   88 1    
    40   19   20 am   BACKBONE|DICT|INTERRES
    41   19   89 1    
    42   20   21 2    
    43   20   22 1    
    44   22   23 1    
    45   22   24 1    
    46   22   90 1    
    47   23   91 1    
    48   23   92 1    
    49   23   93 1    
    50   24   25 am   BACKBONE|DICT|INTERRES
    51   24   94 1    
    52   25   26 2    
    53   25   27 1    
    54   27   28 1    
    55   27   29 1    
    56   27   95 1    
    57   28   96 1    
    58   28   97 1    
    59   28   98 1    
    60   29   30 am   BACKBONE|DICT|INTERRES
    61   29   99 1    
    62   30   31 2    
    63   30   32 1    
    64   32   33 1    
    65   32   34 1    
    66   32  100 1    
    67   33  101 1    
    68   33  102 1    
    69   33  103 1    
    70   34   35 am   BACKBONE|DICT|INTERRES
    71   34  104 1    
    72   35   36 2    
    73   37   38 2    
    74   37   39 am   BACKBONE|DICT|INTERRES
    75   39   40 1    
    76   39  105 1    
    77   40   41 1    
    78   40   42 1    
    79   40  106 1    
    80   41  107 1    
    81   41  108 1    
    82   41  109 1    
    83   42   43 2    
    84   42   44 am   BACKBONE|DICT|INTERRES
    85   44   45 1    
    86   44  110 1    
    87   45   46 1    
    88   45   47 1    
    89   45  111 1    
    90   46  112 1    
    91   46  113 1    
    92   46  114 1    
    93   47   48 2    
    94   47   49 am   BACKBONE|DICT|INTERRES
    95   49   50 1    
    96   49  115 1    
    97   50   51 1    
    98   50   52 1    
    99   50  116 1    
   100   51  117 1    
   101   51  118 1    
   102   51  119 1    
   103   52   53 2    
   104   52   54 am   BACKBONE|DICT|INTERRES
   105   54   55 1    
   106   54  120 1    
   107   55   56 1    
   108   55   57 1    
   109   55  121 1    
   110   56  122 1    
   111   56  123 1    
   112   56  124 1    
   113   57   58 2    
   114   57   59 am   BACKBONE|DICT|INTERRES
   115   59   60 1    
   116   59  125 1    
   117   60   61 1    
   118   60   62 1    
   119   60  126 1    
   120   61  127 1    
   121   61  128 1    
   122   61  129 1    
   123   62   63 2    
   124   62   64 am   BACKBONE|DICT|INTERRES
   125   64   65 1    
   126   64  130 1    
   127   65   66 1    
   128   65   69 1    
   129   65  131 1    
   130   66   67 am   BACKBONE|DICT|INTERRES
   131   66   68 2    
   132   67  132 1    
   133   67  133 1    
   134   69   70 1    
   135   69  134 1    
   136   69  135 1    
   137   70   71 1    
   138   71  136 1    
   139   71  137 1    
@<TRIPOS>SUBSTRUCTURE
     1 UNK         1 GROUP             0       ****    0 ROOT    
