@<TRIPOS>MOLECULE
3R136
137   139    1
SMALL
USER_CHARGES


@<TRIPOS>ATOM
      1 CA         25.1023   22.8550    0.9251 C.3       0 UNK        -0.1979 
      2 C          26.6014   22.6603    0.7629 C.2       0 UNK         0.4864 
      3 O          27.3700   23.6129    0.9111 O.2       0 UNK        -0.5359 
      4 N          27.0112   21.4285    0.4323 N.am      1 UNK        -0.4318 
      5 CA         28.3945   21.0240    0.1423 C.3       1 UNK         0.0824 
      6 C6         29.3625   21.2181    1.3492 C.3       12 UNK        -0.0944 
      7 S7         28.7633   20.3817    2.8547 S.3       12 UNK        -0.2672 
      8 C8         29.7524   21.2039    4.1469 C.3       12 UNK         0.0333 
      9 C9         29.3292   22.6401    4.4524 C.ar      12 UNK        -0.0807 
     10 C10        30.3076   23.6257    4.6206 C.ar      12 UNK        -0.0894 
     11 C11        29.9562   24.9247    5.0009 C.ar      12 UNK        -0.0804 
     12 C12        28.6103   25.2391    5.2094 C.ar      12 UNK        -0.0824 
     13 C13        27.6164   24.2789    5.0026 C.ar      12 UNK        -0.0762 
     14 C14        27.9826   22.9786    4.6363 C.ar      12 UNK        -0.0782 
     15 C15        26.1489   24.6369    5.1939 C.3       12 UNK         0.0230 
     16 S16        25.3386   25.0429    3.6125 S.3       12 UNK        -0.2608 
     17 C17        25.7138   26.8151    3.3928 C.3       12 UNK        -0.0989 
     18 CA         27.0097   27.0926    2.5827 C.3       5 UNK         0.0716 
     19 N          27.0315   26.4641    1.2571 N.am      5 UNK        -0.4135 
     20 C          26.4408   26.8765    0.1263 C.2       4 UNK         0.5031 
     21 O          25.6846   27.8469    0.0522 O.2       4 UNK        -0.5229 
     22 CA         26.7989   26.0698   -1.1438 C.3       4 UNK         0.0329 
     23 CB         26.4210   26.7973   -2.4516 C.3       4 UNK        -0.2001 
     24 N          28.2116   25.6521   -1.1591 N.am      4 UNK        -0.4303 
     25 C          29.2847   26.4591   -1.1147 C.2       3 UNK         0.5044 
     26 O          29.2213   27.6852   -1.1829 O.2       3 UNK        -0.5152 
     27 CA         30.6635   25.8170   -0.8851 C.3       3 UNK         0.0319 
     28 CB         31.0899   26.0143    0.5786 C.3       3 UNK        -0.2001 
     29 N          30.7169   24.3896   -1.1948 N.am      3 UNK        -0.4354 
     30 C          30.8152   23.8712   -2.4269 C.2       2 UNK         0.4964 
     31 O          30.8697   24.5478   -3.4541 O.2       2 UNK        -0.5047 
     32 CA         30.8665   22.3339   -2.5291 C.3       2 UNK         0.0288 
     33 CB         32.3215   21.8506   -2.6456 C.3       2 UNK        -0.2113 
     34 N          30.2223   21.6588   -1.3956 N.am      2 UNK        -0.4145 
     35 C          28.9018   21.6834   -1.1644 C.2       1 UNK         0.5006 
     36 O          28.1014   22.2026   -1.9487 O.2       1 UNK        -0.5103 
     37 C          27.3791   28.5950    2.5619 C.2       5 UNK         0.5055 
     38 O          26.7099   29.4010    3.2139 O.2       5 UNK        -0.5220 
     39 N          28.4495   28.9581    1.8384 N.am      6 UNK        -0.4450 
     40 CA         29.0006   30.3177    1.7534 C.3       6 UNK         0.0367 
     41 CB         29.9005   30.4237    0.5088 C.3       6 UNK        -0.1929 
     42 C          29.7326   30.7572    3.0404 C.2       6 UNK         0.5070 
     43 O          30.8934   31.1648    2.9861 O.2       6 UNK        -0.5237 
     44 N          29.0341   30.6875    4.1804 N.am      7 UNK        -0.4739 
     45 CA         29.5296   31.0049    5.5248 C.3       7 UNK         0.0276 
     46 CB         28.4931   30.5347    6.5578 C.3       7 UNK        -0.1927 
     47 C          29.8845   32.4883    5.7395 C.2       7 UNK         0.5013 
     48 O          30.5949   32.8056    6.6938 O.2       7 UNK        -0.5193 
     49 N          29.3992   33.3655    4.8501 N.am      8 UNK        -0.4253 
     50 CA         29.7856   34.7757    4.7650 C.3       8 UNK         0.0242 
     51 CB         28.7255   35.5341    3.9489 C.3       8 UNK        -0.2000 
     52 C          31.1867   34.9830    4.1537 C.2       8 UNK         0.4948 
     53 O          31.7463   36.0699    4.3077 O.2       8 UNK        -0.5275 
     54 N          31.7191   33.9614    3.4696 N.am      9 UNK        -0.4246 
     55 CA         33.0582   33.9218    2.8884 C.3       9 UNK         0.0261 
     56 CB         32.9280   33.6050    1.3839 C.3       9 UNK        -0.1959 
     57 C          33.9038   32.8868    3.6543 C.2       9 UNK         0.5033 
     58 O          33.6450   32.6305    4.8326 O.2       9 UNK        -0.5390 
     59 N          34.9145   32.3143    2.9864 N.am      10 UNK        -0.4215 
     60 CA         35.7964   31.2827    3.5427 C.3       10 UNK         0.0240 
     61 CB         37.0257   31.1243    2.6322 C.3       10 UNK        -0.1982 
     62 C          35.1062   29.9211    3.7533 C.2       10 UNK         0.4970 
     63 O          35.5541   29.1552    4.6075 O.2       10 UNK        -0.4916 
     64 N          34.0517   29.6420    2.9722 N.am      11 UNK        -0.4279 
     65 CA         33.2772   28.3896    2.9836 C.3       11 UNK         0.1003 
     66 C          34.1002   27.1249    2.5796 C.2       11 UNK         0.5709 
     67 N          35.1177   27.2616    1.7368 N.am      11 UNK        -0.7358 
     68 O          33.8195   26.0101    3.0118 O.2       11 UNK        -0.4999 
     69 C69        32.4487   28.2293    4.2915 C.3       12 UNK        -0.0954 
     70 S70        30.8778   27.3423    4.0162 S.3       12 UNK        -0.2268 
     71 C71        31.0327   25.9800    5.2099 C.3       12 UNK         0.0203 
     72 H72        24.5439   22.2351    0.2243 H         1 UNK         0.0888 
     73 H73        24.7981   22.5914    1.9373 H         1 UNK         0.0888 
     74 H74        24.8298   23.8946    0.7458 H         1 UNK         0.0888 
     75 H75        26.3203   20.7027    0.3067 H         1 UNK         0.3017 
     76 H76        28.3500   19.9555   -0.0738 H         1 UNK         0.0873 
     77 H77        30.3500   20.8085    1.1329 H         1 UNK         0.0745 
     78 H78        29.5085   22.2778    1.5659 H         1 UNK         0.0745 
     79 H79        30.8038   21.1619    3.8577 H         1 UNK         0.0705 
     80 H80        29.6659   20.6228    5.0658 H         1 UNK         0.0705 
     81 H81        31.3505   23.3755    4.4801 H         1 UNK         0.1334 
     82 H82        28.3377   26.2414    5.5108 H         1 UNK         0.1417 
     83 H83        27.2172   22.2269    4.5008 H         1 UNK         0.1562 
     84 H84        26.0370   25.4622    5.8985 H         1 UNK         0.0748 
     85 H85        25.6277   23.7893    5.6413 H         1 UNK         0.0748 
     86 H86        25.7674   27.2768    4.3804 H         1 UNK         0.0940 
     87 H87        24.8606   27.2783    2.8937 H         1 UNK         0.0940 
     88 H88        27.8331   26.6212    3.1140 H         1 UNK         0.0703 
     89 H89        27.5135   25.5700    1.2116 H         1 UNK         0.3081 
     90 H90        26.2096   25.1533   -1.1000 H         1 UNK         0.0719 
     91 H91        26.6832   26.2019   -3.3260 H         1 UNK         0.0809 
     92 H92        26.9214   27.7621   -2.5394 H         1 UNK         0.0809 
     93 H93        25.3475   26.9844   -2.4970 H         1 UNK         0.0809 
     94 H94        28.3635   24.6564   -1.0576 H         1 UNK         0.2990 
     95 H95        31.3795   26.3393   -1.5234 H         1 UNK         0.0690 
     96 H96        32.0905   25.6204    0.7563 H         1 UNK         0.0788 
     97 H97        30.4082   25.5203    1.2731 H         1 UNK         0.0788 
     98 H98        31.1095   27.0727    0.8396 H         1 UNK         0.0788 
     99 H99        30.6861   23.7560   -0.4102 H         1 UNK         0.2993 
    100 H100       30.3371   22.0507   -3.4419 H         1 UNK         0.0949 
    101 H101       32.9023   22.0952   -1.7551 H         1 UNK         0.0767 
    102 H102       32.3710   20.7717   -2.7945 H         1 UNK         0.0767 
    103 H103       32.8198   22.3161   -3.4973 H         1 UNK         0.0767 
    104 H104       30.8300   21.1870   -0.7415 H         1 UNK         0.3013 
    105 H105       28.9346   28.2483    1.3086 H         1 UNK         0.3121 
    106 H106       28.1696   31.0122    1.6139 H         1 UNK         0.0774 
    107 H107       30.3169   31.4268    0.4073 H         1 UNK         0.0815 
    108 H108       30.7361   29.7245    0.5533 H         1 UNK         0.0815 
    109 H109       29.3385   30.2210   -0.4026 H         1 UNK         0.0815 
    110 H110       28.0826   30.3340    4.1109 H         1 UNK         0.2987 
    111 H111       30.4481   30.4366    5.6810 H         1 UNK         0.0949 
    112 H112       28.3101   29.4631    6.4749 H         1 UNK         0.0806 
    113 H113       28.8391   30.7250    7.5748 H         1 UNK         0.0806 
    114 H114       27.5396   31.0497    6.4348 H         1 UNK         0.0806 
    115 H115       28.8033   33.0085    4.1177 H         1 UNK         0.3010 
    116 H116       29.8045   35.1914    5.7749 H         1 UNK         0.0829 
    117 H117       27.7379   35.4480    4.4025 H         1 UNK         0.0813 
    118 H118       28.9628   36.5976    3.8942 H         1 UNK         0.0813 
    119 H119       28.6605   35.1624    2.9255 H         1 UNK         0.0813 
    120 H120       31.2305   33.0708    3.4566 H         1 UNK         0.3038 
    121 H121       33.5532   34.8886    2.9985 H         1 UNK         0.0769 
    122 H122       32.2398   34.2966    0.8973 H         1 UNK         0.0811 
    123 H123       32.5525   32.5950    1.2134 H         1 UNK         0.0811 
    124 H124       33.8832   33.7002    0.8668 H         1 UNK         0.0811 
    125 H125       35.0801   32.5901    2.0291 H         1 UNK         0.3204 
    126 H126       36.1414   31.6253    4.5209 H         1 UNK         0.0748 
    127 H127       37.7145   30.3787    3.0326 H         1 UNK         0.0771 
    128 H128       36.7481   30.8043    1.6271 H         1 UNK         0.0771 
    129 H129       37.5796   32.0594    2.5469 H         1 UNK         0.0771 
    130 H130       33.7429   30.3404    2.3132 H         1 UNK         0.2980 
    131 H131       32.5660   28.5226    2.1682 H         1 UNK         0.0545 
    132 H132       35.6487   26.4467    1.4738 H         1 UNK         0.3459 
    133 H133       35.3633   28.1654    1.3672 H         1 UNK         0.3459 
    134 H134       33.0383   27.7493    5.0742 H         1 UNK         0.0616 
    135 H135       32.1831   29.2110    4.6844 H         1 UNK         0.0616 
    136 H136       30.9613   26.3792    6.2225 H         1 UNK         0.0634 
    137 H137       32.0248   25.5353    5.1175 H         1 UNK         0.0634 
@<TRIPOS>BOND
     1    1    2 1    
     2    1   72 1    
     3    1   73 1    
     4    1   74 1    
     5    2    3 2    
     6    2    4 am   BACKBONE|DICT|INTERRES
     7    4    5 1    
     8    4   75 1    
     9    5    6 1    
    10    5   35 1    
    11    5   76 1    
    12    6    7 1    
    13    6   77 1    
    14    6   78 1    
    15    7    8 1    
    16    8    9 1    
    17    8   79 1    
    18    8   80 1    
    19    9   10 ar   
    20    9   14 ar   
    21   10   11 ar   
    22   10   81 1    
    23   11   12 ar   
    24   11   71 1    
    25   12   13 ar   
    26   12   82 1    
    27   13   14 ar   
    28   13   15 1    
    29   14   83 1    
    30   15   16 1    
    31   15   84 1    
    32   15   85 1    
    33   16   17 1    
    34   17   18 1    
    35   17   86 1    
    36   17   87 1    
    37   18   19 1    
    38   18   37 1    
    39   18   88 1    
    40   19   20 am   BACKBONE|DICT|INTERRES
    41   19   89 1    
    42   20   21 2    
    43   20   22 1    
    44   22   23 1    
    45   22   24 1    
    46   22   90 1    
    47   23   91 1    
    48   23   92 1    
    49   23   93 1    
    50   24   25 am   BACKBONE|DICT|INTERRES
    51   24   94 1    
    52   25   26 2    
    53   25   27 1    
    54   27   28 1    
    55   27   29 1    
    56   27   95 1    
    57   28   96 1    
    58   28   97 1    
    59   28   98 1    
    60   29   30 am   BACKBONE|DICT|INTERRES
    61   29   99 1    
    62   30   31 2    
    63   30   32 1    
    64   32   33 1    
    65   32   34 1    
    66   32  100 1    
    67   33  101 1    
    68   33  102 1    
    69   33  103 1    
    70   34   35 am   BACKBONE|DICT|INTERRES
    71   34  104 1    
    72   35   36 2    
    73   37   38 2    
    74   37   39 am   BACKBONE|DICT|INTERRES
    75   39   40 1    
    76   39  105 1    
    77   40   41 1    
    78   40   42 1    
    79   40  106 1    
    80   41  107 1    
    81   41  108 1    
    82   41  109 1    
    83   42   43 2    
    84   42   44 am   BACKBONE|DICT|INTERRES
    85   44   45 1    
    86   44  110 1    
    87   45   46 1    
    88   45   47 1    
    89   45  111 1    
    90   46  112 1    
    91   46  113 1    
    92   46  114 1    
    93   47   48 2    
    94   47   49 am   BACKBONE|DICT|INTERRES
    95   49   50 1    
    96   49  115 1    
    97   50   51 1    
    98   50   52 1    
    99   50  116 1    
   100   51  117 1    
   101   51  118 1    
   102   51  119 1    
   103   52   53 2    
   104   52   54 am   BACKBONE|DICT|INTERRES
   105   54   55 1    
   106   54  120 1    
   107   55   56 1    
   108   55   57 1    
   109   55  121 1    
   110   56  122 1    
   111   56  123 1    
   112   56  124 1    
   113   57   58 2    
   114   57   59 am   BACKBONE|DICT|INTERRES
   115   59   60 1    
   116   59  125 1    
   117   60   61 1    
   118   60   62 1    
   119   60  126 1    
   120   61  127 1    
   121   61  128 1    
   122   61  129 1    
   123   62   63 2    
   124   62   64 am   BACKBONE|DICT|INTERRES
   125   64   65 1    
   126   64  130 1    
   127   65   66 1    
   128   65   69 1    
   129   65  131 1    
   130   66   67 am   BACKBONE|DICT|INTERRES
   131   66   68 2    
   132   67  132 1    
   133   67  133 1    
   134   69   70 1    
   135   69  134 1    
   136   69  135 1    
   137   70   71 1    
   138   71  136 1    
   139   71  137 1    
@<TRIPOS>SUBSTRUCTURE
     1 UNK         1 GROUP             0       ****    0 ROOT    
