@<TRIPOS>MOLECULE
3R136
137   139    1
SMALL
USER_CHARGES


@<TRIPOS>ATOM
      1 CA         32.4638   17.7329    1.1563 C.3       0 UNK        -0.1979 
      2 C          32.6786   19.2229    1.3787 C.2       0 UNK         0.4864 
      3 O          33.5808   19.6066    2.1248 O.2       0 UNK        -0.5359 
      4 N          31.8614   20.0615    0.7358 N.am      1 UNK        -0.4318 
      5 CA         31.9054   21.5196    0.8142 C.3       1 UNK         0.0824 
      6 C6         31.2674   22.0736    2.1215 C.3       12 UNK        -0.0944 
      7 S7         29.5111   21.6106    2.3659 S.3       12 UNK        -0.2672 
      8 C8         29.2682   21.9355    4.1410 C.3       12 UNK         0.0333 
      9 C9         28.9467   23.3985    4.4136 C.ar      12 UNK        -0.0807 
     10 C10        29.9770   24.3418    4.4686 C.ar      12 UNK        -0.0894 
     11 C11        29.6889   25.6856    4.7129 C.ar      12 UNK        -0.0804 
     12 C12        28.3737   26.0764    4.9563 C.ar      12 UNK        -0.0824 
     13 C13        27.3319   25.1530    4.8938 C.ar      12 UNK        -0.0762 
     14 C14        27.6225   23.8112    4.6166 C.ar      12 UNK        -0.0782 
     15 C15        25.9011   25.6230    5.1133 C.3       12 UNK         0.0230 
     16 S16        25.2681   26.4955    3.6441 S.3       12 UNK        -0.2608 
     17 C17        25.2249   28.2603    4.1437 C.3       12 UNK        -0.0989 
     18 CA         26.4603   29.1090    3.7212 C.3       5 UNK         0.0716 
     19 N          26.9256   28.7975    2.3697 N.am      5 UNK        -0.4135 
     20 C          28.0055   29.2902    1.7467 C.2       4 UNK         0.5031 
     21 O          28.7586   30.1495    2.2213 O.2       4 UNK        -0.5229 
     22 CA         28.3058   28.6719    0.3687 C.3       4 UNK         0.0329 
     23 CB         29.5790   29.2388   -0.2787 C.3       4 UNK        -0.2001 
     24 N          28.4515   27.2206    0.4817 N.am      4 UNK        -0.4303 
     25 C          27.4491   26.3335    0.4602 C.2       3 UNK         0.5044 
     26 O          26.2700   26.6524    0.2973 O.2       3 UNK        -0.5152 
     27 CA         27.8406   24.8598    0.6833 C.3       3 UNK         0.0319 
     28 CB         26.7105   23.8718    0.3302 C.3       3 UNK        -0.2001 
     29 N          29.0902   24.4897    0.0066 N.am      3 UNK        -0.4354 
     30 C          29.3633   24.5525   -1.3084 C.2       2 UNK         0.4964 
     31 O          28.5611   24.9274   -2.1637 O.2       2 UNK        -0.5047 
     32 CA         30.7854   24.1503   -1.7502 C.3       2 UNK         0.0288 
     33 CB         31.6056   25.4044   -2.0961 C.3       2 UNK        -0.2113 
     34 N          31.5046   23.3685   -0.7384 N.am      2 UNK        -0.4145 
     35 C          31.2290   22.0914   -0.4426 C.2       1 UNK         0.5006 
     36 O          30.4424   21.3920   -1.0895 O.2       1 UNK        -0.5103 
     37 C          26.1822   30.6176    3.8535 C.2       5 UNK         0.5055 
     38 O          25.2650   31.1186    3.2008 O.2       5 UNK        -0.5220 
     39 N          27.0317   31.3192    4.6185 N.am      6 UNK        -0.4450 
     40 CA         27.1123   32.7788    4.8025 C.3       6 UNK         0.0367 
     41 CB         25.8059   33.3483    5.3903 C.3       6 UNK        -0.1929 
     42 C          27.5509   33.5739    3.5530 C.2       6 UNK         0.5070 
     43 O          28.1011   34.6640    3.7086 O.2       6 UNK        -0.5237 
     44 N          27.3238   33.0302    2.3498 N.am      7 UNK        -0.4739 
     45 CA         27.7103   33.6013    1.0577 C.3       7 UNK         0.0276 
     46 CB         27.0641   32.7852   -0.0735 C.3       7 UNK        -0.1927 
     47 C          29.2330   33.6883    0.8622 C.2       7 UNK         0.5013 
     48 O          29.7045   34.6666    0.2804 O.2       7 UNK        -0.5193 
     49 N          29.9675   32.6862    1.3634 N.am      8 UNK        -0.4253 
     50 CA         31.4325   32.6857    1.4113 C.3       8 UNK         0.0242 
     51 CB         32.0195   31.8738    0.2451 C.3       8 UNK        -0.2000 
     52 C          31.9658   32.1751    2.7547 C.2       8 UNK         0.4948 
     53 O          33.0488   32.6035    3.1527 O.2       8 UNK        -0.5275 
     54 N          31.2337   31.2713    3.4275 N.am      9 UNK        -0.4246 
     55 CA         31.4836   30.7236    4.7733 C.3       9 UNK         0.0261 
     56 CB         31.4274   31.8353    5.8396 C.3       9 UNK        -0.1959 
     57 C          32.7523   29.8575    4.9435 C.2       9 UNK         0.5033 
     58 O          32.7695   29.0127    5.8393 O.2       9 UNK        -0.5390 
     59 N          33.7745   30.0453    4.0991 N.am      10 UNK        -0.4215 
     60 CA         34.9440   29.1675    3.9882 C.3       10 UNK         0.0240 
     61 CB         36.0698   29.8937    3.2331 C.3       10 UNK        -0.1982 
     62 C          34.5810   27.8392    3.3013 C.2       10 UNK         0.4970 
     63 O          34.9204   26.7737    3.8160 O.2       10 UNK        -0.4916 
     64 N          33.8650   27.9466    2.1729 N.am      11 UNK        -0.4279 
     65 CA         33.2124   26.8525    1.4300 C.3       11 UNK         0.1003 
     66 C          34.1674   25.7976    0.7958 C.2       11 UNK         0.5709 
     67 N          35.4455   26.0970    0.6042 N.am      11 UNK        -0.7358 
     68 O          33.7339   24.7007    0.4456 O.2       11 UNK        -0.4999 
     69 C69        32.0532   26.1849    2.2227 C.3       12 UNK        -0.0954 
     70 S70        30.9170   27.3951    2.9752 S.3       12 UNK        -0.2268 
     71 C71        30.7765   26.7391    4.6648 C.3       12 UNK         0.0203 
     72 H72        33.3611   17.2831    0.7322 H         1 UNK         0.0888 
     73 H73        32.2493   17.2396    2.1039 H         1 UNK         0.0888 
     74 H74        31.6333   17.5383    0.4777 H         1 UNK         0.0888 
     75 H75        31.1485   19.7161    0.1042 H         1 UNK         0.3017 
     76 H76        32.9529   21.8286    0.7791 H         1 UNK         0.0873 
     77 H77        31.8420   21.7174    2.9777 H         1 UNK         0.0745 
     78 H78        31.3494   23.1601    2.1475 H         1 UNK         0.0745 
     79 H79        30.1527   21.6314    4.7027 H         1 UNK         0.0705 
     80 H80        28.4540   21.3034    4.4985 H         1 UNK         0.0705 
     81 H81        30.9996   24.0350    4.3019 H         1 UNK         0.1334 
     82 H82        28.1603   27.1100    5.1713 H         1 UNK         0.1417 
     83 H83        26.8199   23.0882    4.5616 H         1 UNK         0.1562 
     84 H84        25.8493   26.2622    5.9956 H         1 UNK         0.0748 
     85 H85        25.2519   24.7705    5.3182 H         1 UNK         0.0748 
     86 H86        25.0691   28.3326    5.2213 H         1 UNK         0.0940 
     87 H87        24.3181   28.6705    3.6940 H         1 UNK         0.0940 
     88 H88        27.2818   28.8692    4.3930 H         1 UNK         0.0703 
     89 H89        26.3897   28.0887    1.8816 H         1 UNK         0.3081 
     90 H90        27.4642   28.9067   -0.2864 H         1 UNK         0.0719 
     91 H91        30.4603   29.0140    0.3216 H         1 UNK         0.0809 
     92 H92        29.7370   28.8203   -1.2727 H         1 UNK         0.0809 
     93 H93        29.5145   30.3213   -0.3914 H         1 UNK         0.0809 
     94 H94        29.3809   26.8817    0.6813 H         1 UNK         0.2990 
     95 H95        28.0350   24.7629    1.7528 H         1 UNK         0.0690 
     96 H96        27.0099   22.8427    0.5296 H         1 UNK         0.0788 
     97 H97        26.4235   23.9427   -0.7192 H         1 UNK         0.0788 
     98 H98        25.8196   24.0705    0.9276 H         1 UNK         0.0788 
     99 H99        29.8174   24.1419    0.6130 H         1 UNK         0.2993 
    100 H100       30.6892   23.5423   -2.6526 H         1 UNK         0.0949 
    101 H101       31.6880   26.0799   -1.2449 H         1 UNK         0.0767 
    102 H102       32.6139   25.1446   -2.4196 H         1 UNK         0.0767 
    103 H103       31.1388   25.9630   -2.9087 H         1 UNK         0.0767 
    104 H104       32.2384   23.8511   -0.2222 H         1 UNK         0.3013 
    105 H105       27.7786   30.8045    5.0637 H         1 UNK         0.3121 
    106 H106       27.8962   32.9337    5.5457 H         1 UNK         0.0774 
    107 H107       25.9223   34.4033    5.6420 H         1 UNK         0.0815 
    108 H108       24.9749   33.2764    4.6882 H         1 UNK         0.0815 
    109 H109       25.5207   32.8273    6.3041 H         1 UNK         0.0815 
    110 H110       26.8070   32.1591    2.3316 H         1 UNK         0.2987 
    111 H111       27.3161   34.6190    1.0150 H         1 UNK         0.0949 
    112 H112       27.3131   33.2059   -1.0488 H         1 UNK         0.0806 
    113 H113       27.4018   31.7489   -0.0700 H         1 UNK         0.0806 
    114 H114       25.9771   32.7838    0.0097 H         1 UNK         0.0806 
    115 H115       29.4805   31.9077    1.7974 H         1 UNK         0.3010 
    116 H116       31.7917   33.7131    1.3173 H         1 UNK         0.0829 
    117 H117       31.5962   32.1817   -0.7111 H         1 UNK         0.0813 
    118 H118       33.0990   32.0173    0.1825 H         1 UNK         0.0813 
    119 H119       31.8472   30.8064    0.3662 H         1 UNK         0.0813 
    120 H120       30.4053   30.8923    2.9768 H         1 UNK         0.3038 
    121 H121       30.6430   30.0538    4.9610 H         1 UNK         0.0769 
    122 H122       31.4895   31.4145    6.8441 H         1 UNK         0.0811 
    123 H123       30.4949   32.3962    5.7802 H         1 UNK         0.0811 
    124 H124       32.2511   32.5419    5.7346 H         1 UNK         0.0811 
    125 H125       33.7168   30.8507    3.4824 H         1 UNK         0.3204 
    126 H126       35.3017   28.9389    4.9945 H         1 UNK         0.0748 
    127 H127       36.9509   29.2572    3.1406 H         1 UNK         0.0771 
    128 H128       35.7677   30.1837    2.2260 H         1 UNK         0.0771 
    129 H129       36.3783   30.7967    3.7606 H         1 UNK         0.0771 
    130 H130       33.6604   28.8733    1.8334 H         1 UNK         0.2980 
    131 H131       32.7558   27.3453    0.5715 H         1 UNK         0.0545 
    132 H132       35.8100   26.9923    0.8861 H         1 UNK         0.3459 
    133 H133       36.0533   25.4111    0.1856 H         1 UNK         0.3459 
    134 H134       32.4623   25.5313    2.9941 H         1 UNK         0.0616 
    135 H135       31.4592   25.5480    1.5670 H         1 UNK         0.0616 
    136 H136       31.7322   26.3424    5.0106 H         1 UNK         0.0634 
    137 H137       30.5248   27.5572    5.3403 H         1 UNK         0.0634 
@<TRIPOS>BOND
     1    1    2 1    
     2    1   72 1    
     3    1   73 1    
     4    1   74 1    
     5    2    3 2    
     6    2    4 am   BACKBONE|DICT|INTERRES
     7    4    5 1    
     8    4   75 1    
     9    5    6 1    
    10    5   35 1    
    11    5   76 1    
    12    6    7 1    
    13    6   77 1    
    14    6   78 1    
    15    7    8 1    
    16    8    9 1    
    17    8   79 1    
    18    8   80 1    
    19    9   10 ar   
    20    9   14 ar   
    21   10   11 ar   
    22   10   81 1    
    23   11   12 ar   
    24   11   71 1    
    25   12   13 ar   
    26   12   82 1    
    27   13   14 ar   
    28   13   15 1    
    29   14   83 1    
    30   15   16 1    
    31   15   84 1    
    32   15   85 1    
    33   16   17 1    
    34   17   18 1    
    35   17   86 1    
    36   17   87 1    
    37   18   19 1    
    38   18   37 1    
    39   18   88 1    
    40   19   20 am   BACKBONE|DICT|INTERRES
    41   19   89 1    
    42   20   21 2    
    43   20   22 1    
    44   22   23 1    
    45   22   24 1    
    46   22   90 1    
    47   23   91 1    
    48   23   92 1    
    49   23   93 1    
    50   24   25 am   BACKBONE|DICT|INTERRES
    51   24   94 1    
    52   25   26 2    
    53   25   27 1    
    54   27   28 1    
    55   27   29 1    
    56   27   95 1    
    57   28   96 1    
    58   28   97 1    
    59   28   98 1    
    60   29   30 am   BACKBONE|DICT|INTERRES
    61   29   99 1    
    62   30   31 2    
    63   30   32 1    
    64   32   33 1    
    65   32   34 1    
    66   32  100 1    
    67   33  101 1    
    68   33  102 1    
    69   33  103 1    
    70   34   35 am   BACKBONE|DICT|INTERRES
    71   34  104 1    
    72   35   36 2    
    73   37   38 2    
    74   37   39 am   BACKBONE|DICT|INTERRES
    75   39   40 1    
    76   39  105 1    
    77   40   41 1    
    78   40   42 1    
    79   40  106 1    
    80   41  107 1    
    81   41  108 1    
    82   41  109 1    
    83   42   43 2    
    84   42   44 am   BACKBONE|DICT|INTERRES
    85   44   45 1    
    86   44  110 1    
    87   45   46 1    
    88   45   47 1    
    89   45  111 1    
    90   46  112 1    
    91   46  113 1    
    92   46  114 1    
    93   47   48 2    
    94   47   49 am   BACKBONE|DICT|INTERRES
    95   49   50 1    
    96   49  115 1    
    97   50   51 1    
    98   50   52 1    
    99   50  116 1    
   100   51  117 1    
   101   51  118 1    
   102   51  119 1    
   103   52   53 2    
   104   52   54 am   BACKBONE|DICT|INTERRES
   105   54   55 1    
   106   54  120 1    
   107   55   56 1    
   108   55   57 1    
   109   55  121 1    
   110   56  122 1    
   111   56  123 1    
   112   56  124 1    
   113   57   58 2    
   114   57   59 am   BACKBONE|DICT|INTERRES
   115   59   60 1    
   116   59  125 1    
   117   60   61 1    
   118   60   62 1    
   119   60  126 1    
   120   61  127 1    
   121   61  128 1    
   122   61  129 1    
   123   62   63 2    
   124   62   64 am   BACKBONE|DICT|INTERRES
   125   64   65 1    
   126   64  130 1    
   127   65   66 1    
   128   65   69 1    
   129   65  131 1    
   130   66   67 am   BACKBONE|DICT|INTERRES
   131   66   68 2    
   132   67  132 1    
   133   67  133 1    
   134   69   70 1    
   135   69  134 1    
   136   69  135 1    
   137   70   71 1    
   138   71  136 1    
   139   71  137 1    
@<TRIPOS>SUBSTRUCTURE
     1 UNK         1 GROUP             0       ****    0 ROOT    
