@<TRIPOS>MOLECULE
3R136
137   139    1
SMALL
USER_CHARGES


@<TRIPOS>ATOM
      1 CA         31.0262   26.3387   -4.5289 C.3       0 UNK        -0.1979 
      2 C          30.1422   26.5417   -3.3072 C.2       0 UNK         0.4864 
      3 O          29.2621   27.4025   -3.3274 O.2       0 UNK        -0.5359 
      4 N          30.3710   25.7542   -2.2475 N.am      1 UNK        -0.4318 
      5 CA         29.6152   25.7876   -0.9882 C.3       1 UNK         0.0824 
      6 C6         30.3696   25.0472    0.1426 C.3       12 UNK        -0.0944 
      7 S7         30.7040   23.2846   -0.2252 S.3       12 UNK        -0.2672 
      8 C8         31.8366   22.8248    1.1240 C.3       12 UNK         0.0333 
      9 C9         31.2652   23.1818    2.4873 C.ar      12 UNK        -0.0807 
     10 C10        31.8184   24.2345    3.2202 C.ar      12 UNK        -0.0894 
     11 C11        31.2673   24.6110    4.4468 C.ar      12 UNK        -0.0804 
     12 C12        30.1670   23.9114    4.9507 C.ar      12 UNK        -0.0824 
     13 C13        29.6041   22.8544    4.2262 C.ar      12 UNK        -0.0762 
     14 C14        30.1630   22.4890    2.9979 C.ar      12 UNK        -0.0782 
     15 C15        28.3846   22.1144    4.7612 C.3       12 UNK         0.0230 
     16 S16        26.8359   22.6867    3.9839 S.3       12 UNK        -0.2608 
     17 C17        26.7787   24.4270    4.5268 C.3       12 UNK        -0.0989 
     18 CA         27.1208   25.3953    3.3582 C.3       5 UNK         0.0716 
     19 N          26.0434   25.5042    2.3645 N.am      5 UNK        -0.4135 
     20 C          24.8319   26.0470    2.5689 C.2       4 UNK         0.5031 
     21 O          24.4493   26.5105    3.6440 O.2       4 UNK        -0.5229 
     22 CA         23.8744   26.0888    1.3681 C.3       4 UNK         0.0329 
     23 CB         24.1140   27.3581    0.5336 C.3       4 UNK        -0.2001 
     24 N          23.9786   24.9122    0.5055 N.am      4 UNK        -0.4303 
     25 C          23.5986   23.6688    0.8399 C.2       3 UNK         0.5044 
     26 O          23.0945   23.3773    1.9249 O.2       3 UNK        -0.5152 
     27 CA         23.7829   22.5647   -0.2212 C.3       3 UNK         0.0319 
     28 CB         22.4204   22.1151   -0.7752 C.3       3 UNK        -0.2001 
     29 N          24.6297   22.9950   -1.3373 N.am      3 UNK        -0.4354 
     30 C          25.9672   23.0459   -1.2974 C.2       2 UNK         0.4964 
     31 O          26.6362   22.5735   -0.3765 O.2       2 UNK        -0.5047 
     32 CA         26.6668   23.7518   -2.4788 C.3       2 UNK         0.0288 
     33 CB         25.7743   24.7919   -3.1962 C.3       2 UNK        -0.2113 
     34 N          27.9382   24.3773   -2.0991 N.am      2 UNK        -0.4145 
     35 C          28.1610   25.2804   -1.1281 C.2       1 UNK         0.5006 
     36 O          27.2924   25.7125   -0.3638 O.2       1 UNK        -0.5103 
     37 C          27.5853   26.7916    3.8289 C.2       5 UNK         0.5055 
     38 O          27.7017   27.0446    5.0300 O.2       5 UNK        -0.5220 
     39 N          27.8288   27.6789    2.8585 N.am      6 UNK        -0.4450 
     40 CA         28.3614   29.0215    3.0502 C.3       6 UNK         0.0367 
     41 CB         27.2064   30.0326    3.1430 C.3       6 UNK        -0.1929 
     42 C          29.2720   29.3236    1.8585 C.2       6 UNK         0.5070 
     43 O          28.9665   28.8962    0.7432 O.2       6 UNK        -0.5237 
     44 N          30.3612   30.0531    2.1061 N.am      7 UNK        -0.4739 
     45 CA         31.3733   30.4280    1.1229 C.3       7 UNK         0.0276 
     46 CB         32.2651   29.2132    0.7860 C.3       7 UNK        -0.1927 
     47 C          32.1904   31.6033    1.6767 C.2       7 UNK         0.5013 
     48 O          32.0223   31.9734    2.8445 O.2       7 UNK        -0.5193 
     49 N          33.0589   32.1675    0.8271 N.am      8 UNK        -0.4253 
     50 CA         33.9553   33.2852    1.1404 C.3       8 UNK         0.0242 
     51 CB         34.7562   33.6502   -0.1207 C.3       8 UNK        -0.2000 
     52 C          34.9092   32.9899    2.3126 C.2       8 UNK         0.4948 
     53 O          35.2629   31.8305    2.5400 O.2       8 UNK        -0.5275 
     54 N          35.3051   34.0581    3.0212 N.am      9 UNK        -0.4246 
     55 CA         36.1369   34.0533    4.2330 C.3       9 UNK         0.0261 
     56 CB         37.5752   33.5870    3.9175 C.3       9 UNK        -0.1959 
     57 C          35.4842   33.2654    5.3867 C.2       9 UNK         0.5033 
     58 O          36.1493   32.4560    6.0366 O.2       9 UNK        -0.5390 
     59 N          34.1787   33.5048    5.5952 N.am      10 UNK        -0.4215 
     60 CA         33.3101   32.8850    6.6074 C.3       10 UNK         0.0240 
     61 CB         33.6706   33.4053    8.0157 C.3       10 UNK        -0.1982 
     62 C          33.2920   31.3450    6.5237 C.2       10 UNK         0.4970 
     63 O          33.3607   30.6684    7.5516 O.2       10 UNK        -0.4916 
     64 N          33.2232   30.8276    5.2907 N.am      11 UNK        -0.4279 
     65 CA         33.3115   29.4029    4.9412 C.3       11 UNK         0.1003 
     66 C          34.7154   28.7553    5.1596 C.2       11 UNK         0.5709 
     67 N          35.7665   29.5089    5.4633 N.am      11 UNK        -0.7358 
     68 O          34.8702   27.5450    5.0213 O.2       11 UNK        -0.4999 
     69 C69        32.1376   28.5735    5.5455 C.3       12 UNK        -0.0954 
     70 S70        31.4528   27.3544    4.3783 S.3       12 UNK        -0.2268 
     71 C71        31.8530   25.7881    5.2098 C.3       12 UNK         0.0203 
     72 H72        31.5618   27.2588   -4.7610 H         1 UNK         0.0888 
     73 H73        31.7611   25.5488   -4.3745 H         1 UNK         0.0888 
     74 H74        30.4173   26.0714   -5.3922 H         1 UNK         0.0888 
     75 H75        31.1092   25.0650   -2.2870 H         1 UNK         0.3017 
     76 H76        29.5407   26.8359   -0.6956 H         1 UNK         0.0873 
     77 H77        29.8079   25.1161    1.0762 H         1 UNK         0.0745 
     78 H78        31.3207   25.5471    0.3337 H         1 UNK         0.0745 
     79 H79        32.7974   23.3165    0.9637 H         1 UNK         0.0705 
     80 H80        32.0286   21.7519    1.0790 H         1 UNK         0.0705 
     81 H81        32.6619   24.7847    2.8254 H         1 UNK         0.1334 
     82 H82        29.7387   24.2026    5.9000 H         1 UNK         0.1417 
     83 H83        29.7225   21.6845    2.4242 H         1 UNK         0.1562 
     84 H84        28.3099   22.2267    5.8440 H         1 UNK         0.0748 
     85 H85        28.4970   21.0452    4.5755 H         1 UNK         0.0748 
     86 H86        27.4641   24.5489    5.3653 H         1 UNK         0.0940 
     87 H87        25.7902   24.6369    4.9368 H         1 UNK         0.0940 
     88 H88        27.9800   24.9824    2.8268 H         1 UNK         0.0703 
     89 H89        26.2827   25.2105    1.4235 H         1 UNK         0.3081 
     90 H90        22.8554   26.1265    1.7596 H         1 UNK         0.0719 
     91 H91        25.1099   27.3697    0.0883 H         1 UNK         0.0809 
     92 H92        23.3848   27.4479   -0.2717 H         1 UNK         0.0809 
     93 H93        24.0244   28.2528    1.1514 H         1 UNK         0.0809 
     94 H94        24.3978   25.0533   -0.4011 H         1 UNK         0.2990 
     95 H95        24.2499   21.7097    0.2727 H         1 UNK         0.0690 
     96 H96        22.5323   21.3007   -1.4913 H         1 UNK         0.0788 
     97 H97        21.8958   22.9318   -1.2728 H         1 UNK         0.0788 
     98 H98        21.7738   21.7528    0.0253 H         1 UNK         0.0788 
     99 H99        24.1563   23.3752   -2.1448 H         1 UNK         0.2993 
    100 H100       26.9135   22.9672   -3.1956 H         1 UNK         0.0949 
    101 H101       26.3257   25.2953   -3.9910 H         1 UNK         0.0767 
    102 H102       24.9069   24.3275   -3.6661 H         1 UNK         0.0767 
    103 H103       25.4158   25.5620   -2.5118 H         1 UNK         0.0767 
    104 H104       28.7462   24.0627   -2.6165 H         1 UNK         0.3013 
    105 H105       27.7486   27.3999    1.8874 H         1 UNK         0.3121 
    106 H106       28.9541   29.0601    3.9669 H         1 UNK         0.0774 
    107 H107       27.5850   31.0462    3.2804 H         1 UNK         0.0815 
    108 H108       26.5956   30.0294    2.2392 H         1 UNK         0.0815 
    109 H109       26.5544   29.8109    3.9881 H         1 UNK         0.0815 
    110 H110       30.5273   30.4331    3.0305 H         1 UNK         0.2987 
    111 H111       30.8704   30.7722    0.2163 H         1 UNK         0.0949 
    112 H112       33.0414   29.4732    0.0660 H         1 UNK         0.0806 
    113 H113       32.7617   28.8165    1.6709 H         1 UNK         0.0806 
    114 H114       31.6842   28.4033    0.3444 H         1 UNK         0.0806 
    115 H115       33.1433   31.7784   -0.1004 H         1 UNK         0.3010 
    116 H116       33.3266   34.1349    1.4152 H         1 UNK         0.0829 
    117 H117       34.0982   33.9244   -0.9457 H         1 UNK         0.0813 
    118 H118       35.4129   34.5019    0.0621 H         1 UNK         0.0813 
    119 H119       35.3842   32.8218   -0.4518 H         1 UNK         0.0813 
    120 H120       34.9697   34.9675    2.7324 H         1 UNK         0.3038 
    121 H121       36.1975   35.0890    4.5710 H         1 UNK         0.0769 
    122 H122       38.2210   33.6996    4.7892 H         1 UNK         0.0811 
    123 H123       38.0150   34.1735    3.1110 H         1 UNK         0.0811 
    124 H124       37.6080   32.5369    3.6254 H         1 UNK         0.0811 
    125 H125       33.7234   34.1652    4.9802 H         1 UNK         0.3204 
    126 H126       32.2929   33.2111    6.3847 H         1 UNK         0.0748 
    127 H127       32.9648   33.0386    8.7621 H         1 UNK         0.0771 
    128 H128       34.6663   33.0829    8.3227 H         1 UNK         0.0771 
    129 H129       33.6442   34.4943    8.0552 H         1 UNK         0.0771 
    130 H130       33.1394   31.4557    4.4987 H         1 UNK         0.2980 
    131 H131       33.1924   29.4122    3.8590 H         1 UNK         0.0545 
    132 H132       36.6630   29.0669    5.5856 H         1 UNK         0.3459 
    133 H133       35.6821   30.5117    5.5852 H         1 UNK         0.3459 
    134 H134       32.4307   28.0926    6.4804 H         1 UNK         0.0616 
    135 H135       31.3047   29.2282    5.8068 H         1 UNK         0.0616 
    136 H136       31.4697   25.8137    6.2310 H         1 UNK         0.0634 
    137 H137       32.9353   25.6763    5.2821 H         1 UNK         0.0634 
@<TRIPOS>BOND
     1    1    2 1    
     2    1   72 1    
     3    1   73 1    
     4    1   74 1    
     5    2    3 2    
     6    2    4 am   BACKBONE|DICT|INTERRES
     7    4    5 1    
     8    4   75 1    
     9    5    6 1    
    10    5   35 1    
    11    5   76 1    
    12    6    7 1    
    13    6   77 1    
    14    6   78 1    
    15    7    8 1    
    16    8    9 1    
    17    8   79 1    
    18    8   80 1    
    19    9   10 ar   
    20    9   14 ar   
    21   10   11 ar   
    22   10   81 1    
    23   11   12 ar   
    24   11   71 1    
    25   12   13 ar   
    26   12   82 1    
    27   13   14 ar   
    28   13   15 1    
    29   14   83 1    
    30   15   16 1    
    31   15   84 1    
    32   15   85 1    
    33   16   17 1    
    34   17   18 1    
    35   17   86 1    
    36   17   87 1    
    37   18   19 1    
    38   18   37 1    
    39   18   88 1    
    40   19   20 am   BACKBONE|DICT|INTERRES
    41   19   89 1    
    42   20   21 2    
    43   20   22 1    
    44   22   23 1    
    45   22   24 1    
    46   22   90 1    
    47   23   91 1    
    48   23   92 1    
    49   23   93 1    
    50   24   25 am   BACKBONE|DICT|INTERRES
    51   24   94 1    
    52   25   26 2    
    53   25   27 1    
    54   27   28 1    
    55   27   29 1    
    56   27   95 1    
    57   28   96 1    
    58   28   97 1    
    59   28   98 1    
    60   29   30 am   BACKBONE|DICT|INTERRES
    61   29   99 1    
    62   30   31 2    
    63   30   32 1    
    64   32   33 1    
    65   32   34 1    
    66   32  100 1    
    67   33  101 1    
    68   33  102 1    
    69   33  103 1    
    70   34   35 am   BACKBONE|DICT|INTERRES
    71   34  104 1    
    72   35   36 2    
    73   37   38 2    
    74   37   39 am   BACKBONE|DICT|INTERRES
    75   39   40 1    
    76   39  105 1    
    77   40   41 1    
    78   40   42 1    
    79   40  106 1    
    80   41  107 1    
    81   41  108 1    
    82   41  109 1    
    83   42   43 2    
    84   42   44 am   BACKBONE|DICT|INTERRES
    85   44   45 1    
    86   44  110 1    
    87   45   46 1    
    88   45   47 1    
    89   45  111 1    
    90   46  112 1    
    91   46  113 1    
    92   46  114 1    
    93   47   48 2    
    94   47   49 am   BACKBONE|DICT|INTERRES
    95   49   50 1    
    96   49  115 1    
    97   50   51 1    
    98   50   52 1    
    99   50  116 1    
   100   51  117 1    
   101   51  118 1    
   102   51  119 1    
   103   52   53 2    
   104   52   54 am   BACKBONE|DICT|INTERRES
   105   54   55 1    
   106   54  120 1    
   107   55   56 1    
   108   55   57 1    
   109   55  121 1    
   110   56  122 1    
   111   56  123 1    
   112   56  124 1    
   113   57   58 2    
   114   57   59 am   BACKBONE|DICT|INTERRES
   115   59   60 1    
   116   59  125 1    
   117   60   61 1    
   118   60   62 1    
   119   60  126 1    
   120   61  127 1    
   121   61  128 1    
   122   61  129 1    
   123   62   63 2    
   124   62   64 am   BACKBONE|DICT|INTERRES
   125   64   65 1    
   126   64  130 1    
   127   65   66 1    
   128   65   69 1    
   129   65  131 1    
   130   66   67 am   BACKBONE|DICT|INTERRES
   131   66   68 2    
   132   67  132 1    
   133   67  133 1    
   134   69   70 1    
   135   69  134 1    
   136   69  135 1    
   137   70   71 1    
   138   71  136 1    
   139   71  137 1    
@<TRIPOS>SUBSTRUCTURE
     1 UNK         1 GROUP             0       ****    0 ROOT    
