@<TRIPOS>MOLECULE
3R136
137   139    1
SMALL
USER_CHARGES


@<TRIPOS>ATOM
      1 CA         30.0459   20.0447   -2.0639 C.3       0 UNK        -0.1979 
      2 C          29.7447   21.5285   -2.2100 C.2       0 UNK         0.4864 
      3 O          29.4439   21.9886   -3.3131 O.2       0 UNK        -0.5359 
      4 N          29.8081   22.2832   -1.1054 N.am      1 UNK        -0.4318 
      5 CA         29.5790   23.7329   -1.0415 C.3       1 UNK         0.0824 
      6 C6         30.2782   24.3713    0.1888 C.3       12 UNK        -0.0944 
      7 S7         32.0796   24.0791    0.2331 S.3       12 UNK        -0.2672 
      8 C8         32.2654   23.0427    1.7216 C.3       12 UNK         0.0333 
      9 C9         32.0528   23.8415    3.0007 C.ar      12 UNK        -0.0807 
     10 C10        33.1026   24.5883    3.5447 C.ar      12 UNK        -0.0894 
     11 C11        32.9143   25.3339    4.7150 C.ar      12 UNK        -0.0804 
     12 C12        31.6595   25.3235    5.3302 C.ar      12 UNK        -0.0824 
     13 C13        30.6008   24.5768    4.8080 C.ar      12 UNK        -0.0762 
     14 C14        30.8136   23.8216    3.6485 C.ar      12 UNK        -0.0782 
     15 C15        29.2683   24.6000    5.5576 C.3       12 UNK         0.0230 
     16 S16        27.8142   23.9367    4.6709 S.3       12 UNK        -0.2608 
     17 C17        27.4438   25.0243    3.2399 C.3       12 UNK        -0.0989 
     18 CA         28.1747   26.3835    3.0478 C.3       5 UNK         0.0716 
     19 N          27.8958   26.8976    1.6964 N.am      5 UNK        -0.4135 
     20 C          28.1888   28.1069    1.1946 C.2       4 UNK         0.5031 
     21 O          28.7740   28.9925    1.8157 O.2       4 UNK        -0.5229 
     22 CA         27.7976   28.3953   -0.2636 C.3       4 UNK         0.0329 
     23 CB         28.9758   28.1008   -1.2059 C.3       4 UNK        -0.2001 
     24 N          26.6193   27.6631   -0.7230 N.am      4 UNK        -0.4303 
     25 C          25.3575   27.8856   -0.3362 C.2       3 UNK         0.5044 
     26 O          25.0422   28.7616    0.4692 O.2       3 UNK        -0.5152 
     27 CA         24.2515   26.9860   -0.9310 C.3       3 UNK         0.0319 
     28 CB         23.5161   27.7020   -2.0812 C.3       3 UNK        -0.2001 
     29 N          24.6876   25.6353   -1.3270 N.am      3 UNK        -0.4354 
     30 C          25.5279   25.2771   -2.3091 C.2       2 UNK         0.4964 
     31 O          26.0472   26.0642   -3.1023 O.2       2 UNK        -0.5047 
     32 CA         25.9310   23.7936   -2.3533 C.3       2 UNK         0.0288 
     33 CB         25.5417   23.1552   -3.6967 C.3       2 UNK        -0.2113 
     34 N          27.3698   23.6138   -2.1305 N.am      2 UNK        -0.4145 
     35 C          28.0678   24.0623   -1.0765 C.2       1 UNK         0.5006 
     36 O          27.5572   24.6946   -0.1488 O.2       1 UNK        -0.5103 
     37 C          27.8017   27.4018    4.1490 C.2       5 UNK         0.5055 
     38 O          26.6136   27.6330    4.3823 O.2       5 UNK        -0.5220 
     39 N          28.8280   27.9954    4.7809 N.am      6 UNK        -0.4450 
     40 CA         28.7661   28.9967    5.8543 C.3       6 UNK         0.0367 
     41 CB         28.0233   28.4559    7.0952 C.3       6 UNK        -0.1929 
     42 C          28.2504   30.3807    5.4086 C.2       6 UNK         0.5070 
     43 O          27.9559   31.2163    6.2648 O.2       6 UNK        -0.5237 
     44 N          28.1787   30.6169    4.0944 N.am      7 UNK        -0.4739 
     45 CA         27.8556   31.8954    3.4718 C.3       7 UNK         0.0276 
     46 CB         26.6117   31.7260    2.5755 C.3       7 UNK        -0.1927 
     47 C          29.1075   32.3574    2.7159 C.2       7 UNK         0.5013 
     48 O          29.9725   32.9928    3.3196 O.2       7 UNK        -0.5193 
     49 N          29.2047   32.0057    1.4264 N.am      8 UNK        -0.4253 
     50 CA         30.3852   32.2341    0.5894 C.3       8 UNK         0.0242 
     51 CB         30.0181   32.0264   -0.8886 C.3       8 UNK        -0.2000 
     52 C          31.5713   31.3400    0.9916 C.2       8 UNK         0.4948 
     53 O          32.7108   31.8072    0.9839 O.2       8 UNK        -0.5275 
     54 N          31.2854   30.0894    1.3771 N.am      9 UNK        -0.4246 
     55 CA         32.2415   29.1477    1.9505 C.3       9 UNK         0.0261 
     56 CB         31.9440   27.7227    1.4466 C.3       9 UNK        -0.1959 
     57 C          32.1668   29.2596    3.4784 C.2       9 UNK         0.5033 
     58 O          31.6310   28.3717    4.1436 O.2       9 UNK        -0.5390 
     59 N          32.6737   30.3827    4.0006 N.am      10 UNK        -0.4215 
     60 CA         32.8894   30.6008    5.4329 C.3       10 UNK         0.0240 
     61 CB         32.8808   32.1095    5.7248 C.3       10 UNK        -0.1982 
     62 C          34.2038   29.9581    5.9132 C.2       10 UNK         0.4970 
     63 O          34.3014   29.5936    7.0848 O.2       10 UNK        -0.4916 
     64 N          35.1745   29.8255    4.9962 N.am      11 UNK        -0.4279 
     65 CA         36.4850   29.1745    5.1735 C.3       11 UNK         0.1003 
     66 C          37.4568   29.9014    6.1534 C.2       11 UNK         0.5709 
     67 N          37.2211   31.1597    6.5063 N.am      11 UNK        -0.7358 
     68 O          38.4609   29.3321    6.5761 O.2       11 UNK        -0.4999 
     69 C69        36.3800   27.6469    5.4540 C.3       12 UNK        -0.0954 
     70 S70        35.3266   26.7572    4.2533 S.3       12 UNK        -0.2268 
     71 C71        34.0394   26.1253    5.3796 C.3       12 UNK         0.0203 
     72 H72        30.8845   19.7684   -2.7024 H         1 UNK         0.0888 
     73 H73        30.2996   19.7789   -1.0378 H         1 UNK         0.0888 
     74 H74        29.1800   19.4550   -2.3634 H         1 UNK         0.0888 
     75 H75        30.0388   21.8450   -0.2261 H         1 UNK         0.3017 
     76 H76        30.0151   24.1873   -1.9340 H         1 UNK         0.0873 
     77 H77        30.1317   25.4519    0.1953 H         1 UNK         0.0745 
     78 H78        29.8212   24.0062    1.1067 H         1 UNK         0.0745 
     79 H79        33.2679   22.6122    1.7244 H         1 UNK         0.0705 
     80 H80        31.5749   22.1997    1.6715 H         1 UNK         0.0705 
     81 H81        34.0650   24.5810    3.0527 H         1 UNK         0.1334 
     82 H82        31.5083   25.8984    6.2340 H         1 UNK         0.1417 
     83 H83        30.0173   23.2157    3.2422 H         1 UNK         0.1562 
     84 H84        29.0488   25.6016    5.9205 H         1 UNK         0.0748 
     85 H85        29.3955   23.9936    6.4553 H         1 UNK         0.0748 
     86 H86        26.3635   25.1832    3.2254 H         1 UNK         0.0940 
     87 H87        27.6413   24.3975    2.3710 H         1 UNK         0.0940 
     88 H88        29.2500   26.2090    3.0836 H         1 UNK         0.0703 
     89 H89        27.4770   26.2273    1.0585 H         1 UNK         0.3081 
     90 H90        27.5720   29.4616   -0.3294 H         1 UNK         0.0719 
     91 H91        29.1814   27.0333   -1.2765 H         1 UNK         0.0809 
     92 H92        28.7741   28.4660   -2.2131 H         1 UNK         0.0809 
     93 H93        29.8906   28.5862   -0.8640 H         1 UNK         0.0809 
     94 H94        26.7639   26.9514   -1.4303 H         1 UNK         0.2990 
     95 H95        23.5271   26.8317   -0.1297 H         1 UNK         0.0690 
     96 H96        22.6950   27.0966   -2.4653 H         1 UNK         0.0788 
     97 H97        24.1822   27.9321   -2.9132 H         1 UNK         0.0788 
     98 H98        23.0901   28.6465   -1.7402 H         1 UNK         0.0788 
     99 H99        24.3673   24.9015   -0.7095 H         1 UNK         0.2993 
    100 H100       25.4089   23.2589   -1.5571 H         1 UNK         0.0949 
    101 H101       26.0675   23.6210   -4.5314 H         1 UNK         0.0767 
    102 H102       25.7695   22.0890   -3.7105 H         1 UNK         0.0767 
    103 H103       24.4722   23.2608   -3.8842 H         1 UNK         0.0767 
    104 H104       27.8851   23.0924   -2.8338 H         1 UNK         0.3013 
    105 H105       29.7754   27.8128    4.4527 H         1 UNK         0.3121 
    106 H106       29.8028   29.1600    6.1507 H         1 UNK         0.0774 
    107 H107       28.1218   29.1406    7.9382 H         1 UNK         0.0815 
    108 H108       26.9570   28.3288    6.9082 H         1 UNK         0.0815 
    109 H109       28.4271   27.4957    7.4148 H         1 UNK         0.0815 
    110 H110       28.4578   29.8782    3.4529 H         1 UNK         0.2987 
    111 H111       27.6341   32.6555    4.2242 H         1 UNK         0.0949 
    112 H112       26.4045   32.6367    2.0117 H         1 UNK         0.0806 
    113 H113       26.7145   30.9064    1.8636 H         1 UNK         0.0806 
    114 H114       25.7287   31.5160    3.1793 H         1 UNK         0.0806 
    115 H115       28.4561   31.4602    1.0260 H         1 UNK         0.3010 
    116 H116       30.6970   33.2729    0.7189 H         1 UNK         0.0829 
    117 H117       29.2384   32.7201   -1.2041 H         1 UNK         0.0813 
    118 H118       30.8821   32.1985   -1.5321 H         1 UNK         0.0813 
    119 H119       29.6642   31.0143   -1.0826 H         1 UNK         0.0813 
    120 H120       30.3091   29.8051    1.4401 H         1 UNK         0.3038 
    121 H121       33.2577   29.3998    1.6400 H         1 UNK         0.0769 
    122 H122       32.6774   27.0161    1.8374 H         1 UNK         0.0811 
    123 H123       31.9867   27.6651    0.3593 H         1 UNK         0.0811 
    124 H124       30.9650   27.3687    1.7645 H         1 UNK         0.0811 
    125 H125       33.0037   31.0991    3.3671 H         1 UNK         0.3204 
    126 H126       32.0720   30.1418    5.9927 H         1 UNK         0.0748 
    127 H127       33.0203   32.3018    6.7895 H         1 UNK         0.0771 
    128 H128       33.6747   32.6328    5.1904 H         1 UNK         0.0771 
    129 H129       31.9302   32.5601    5.4371 H         1 UNK         0.0771 
    130 H130       34.9981   30.1739    4.0670 H         1 UNK         0.2980 
    131 H131       36.9721   29.2752    4.2032 H         1 UNK         0.0545 
    132 H132       36.4086   31.6441    6.1618 H         1 UNK         0.3459 
    133 H133       37.8611   31.6246    7.1307 H         1 UNK         0.3459 
    134 H134       36.0147   27.4753    6.4678 H         1 UNK         0.0616 
    135 H135       37.3688   27.1871    5.4124 H         1 UNK         0.0616 
    136 H136       33.6155   26.9770    5.9137 H         1 UNK         0.0634 
    137 H137       34.5106   25.4879    6.1288 H         1 UNK         0.0634 
@<TRIPOS>BOND
     1    1    2 1    
     2    1   72 1    
     3    1   73 1    
     4    1   74 1    
     5    2    3 2    
     6    2    4 am   BACKBONE|DICT|INTERRES
     7    4    5 1    
     8    4   75 1    
     9    5    6 1    
    10    5   35 1    
    11    5   76 1    
    12    6    7 1    
    13    6   77 1    
    14    6   78 1    
    15    7    8 1    
    16    8    9 1    
    17    8   79 1    
    18    8   80 1    
    19    9   10 ar   
    20    9   14 ar   
    21   10   11 ar   
    22   10   81 1    
    23   11   12 ar   
    24   11   71 1    
    25   12   13 ar   
    26   12   82 1    
    27   13   14 ar   
    28   13   15 1    
    29   14   83 1    
    30   15   16 1    
    31   15   84 1    
    32   15   85 1    
    33   16   17 1    
    34   17   18 1    
    35   17   86 1    
    36   17   87 1    
    37   18   19 1    
    38   18   37 1    
    39   18   88 1    
    40   19   20 am   BACKBONE|DICT|INTERRES
    41   19   89 1    
    42   20   21 2    
    43   20   22 1    
    44   22   23 1    
    45   22   24 1    
    46   22   90 1    
    47   23   91 1    
    48   23   92 1    
    49   23   93 1    
    50   24   25 am   BACKBONE|DICT|INTERRES
    51   24   94 1    
    52   25   26 2    
    53   25   27 1    
    54   27   28 1    
    55   27   29 1    
    56   27   95 1    
    57   28   96 1    
    58   28   97 1    
    59   28   98 1    
    60   29   30 am   BACKBONE|DICT|INTERRES
    61   29   99 1    
    62   30   31 2    
    63   30   32 1    
    64   32   33 1    
    65   32   34 1    
    66   32  100 1    
    67   33  101 1    
    68   33  102 1    
    69   33  103 1    
    70   34   35 am   BACKBONE|DICT|INTERRES
    71   34  104 1    
    72   35   36 2    
    73   37   38 2    
    74   37   39 am   BACKBONE|DICT|INTERRES
    75   39   40 1    
    76   39  105 1    
    77   40   41 1    
    78   40   42 1    
    79   40  106 1    
    80   41  107 1    
    81   41  108 1    
    82   41  109 1    
    83   42   43 2    
    84   42   44 am   BACKBONE|DICT|INTERRES
    85   44   45 1    
    86   44  110 1    
    87   45   46 1    
    88   45   47 1    
    89   45  111 1    
    90   46  112 1    
    91   46  113 1    
    92   46  114 1    
    93   47   48 2    
    94   47   49 am   BACKBONE|DICT|INTERRES
    95   49   50 1    
    96   49  115 1    
    97   50   51 1    
    98   50   52 1    
    99   50  116 1    
   100   51  117 1    
   101   51  118 1    
   102   51  119 1    
   103   52   53 2    
   104   52   54 am   BACKBONE|DICT|INTERRES
   105   54   55 1    
   106   54  120 1    
   107   55   56 1    
   108   55   57 1    
   109   55  121 1    
   110   56  122 1    
   111   56  123 1    
   112   56  124 1    
   113   57   58 2    
   114   57   59 am   BACKBONE|DICT|INTERRES
   115   59   60 1    
   116   59  125 1    
   117   60   61 1    
   118   60   62 1    
   119   60  126 1    
   120   61  127 1    
   121   61  128 1    
   122   61  129 1    
   123   62   63 2    
   124   62   64 am   BACKBONE|DICT|INTERRES
   125   64   65 1    
   126   64  130 1    
   127   65   66 1    
   128   65   69 1    
   129   65  131 1    
   130   66   67 am   BACKBONE|DICT|INTERRES
   131   66   68 2    
   132   67  132 1    
   133   67  133 1    
   134   69   70 1    
   135   69  134 1    
   136   69  135 1    
   137   70   71 1    
   138   71  136 1    
   139   71  137 1    
@<TRIPOS>SUBSTRUCTURE
     1 UNK         1 GROUP             0       ****    0 ROOT    
