@<TRIPOS>MOLECULE
3R136
137   139    1
SMALL
USER_CHARGES


@<TRIPOS>ATOM
      1 CA         34.2738   24.3333   -2.4368 C.3       0 UNK        -0.1979 
      2 C          32.8947   24.7081   -1.9164 C.2       0 UNK         0.4864 
      3 O          32.6559   25.8729   -1.5959 O.2       0 UNK        -0.5359 
      4 N          31.9773   23.7356   -1.8381 N.am      1 UNK        -0.4318 
      5 CA         30.6043   23.8839   -1.3364 C.3       1 UNK         0.0824 
      6 C6         30.0206   22.5295   -0.8554 C.3       12 UNK        -0.0944 
      7 S7         31.0891   21.6666    0.3494 S.3       12 UNK        -0.2672 
      8 C8         30.0113   21.5340    1.8183 C.3       12 UNK         0.0333 
      9 C9         30.1482   22.6373    2.8720 C.ar      12 UNK        -0.0807 
     10 C10        31.0953   23.6704    2.8010 C.ar      12 UNK        -0.0894 
     11 C11        31.2233   24.6039    3.8382 C.ar      12 UNK        -0.0804 
     12 C12        30.3865   24.4967    4.9559 C.ar      12 UNK        -0.0824 
     13 C13        29.4279   23.4848    5.0347 C.ar      12 UNK        -0.0762 
     14 C14        29.3140   22.5648    3.9909 C.ar      12 UNK        -0.0782 
     15 C15        28.5353   23.3535    6.2597 C.3       12 UNK         0.0230 
     16 S16        26.9011   24.1035    5.9824 S.3       12 UNK        -0.2608 
     17 C17        27.2148   25.8622    6.3581 C.3       12 UNK        -0.0989 
     18 CA         27.4708   26.7294    5.1006 C.3       5 UNK         0.0716 
     19 N          26.4156   26.5862    4.0936 N.am      5 UNK        -0.4135 
     20 C          26.4026   27.1912    2.8998 C.2       4 UNK         0.5031 
     21 O          27.3022   27.9394    2.5029 O.2       4 UNK        -0.5229 
     22 CA         25.1504   26.9483    2.0356 C.3       4 UNK         0.0329 
     23 CB         23.9453   27.7136    2.6100 C.3       4 UNK        -0.2001 
     24 N          25.3394   27.3595    0.6426 N.am      4 UNK        -0.4303 
     25 C          26.1528   26.7596   -0.2349 C.2       3 UNK         0.5044 
     26 O          26.7698   25.7179    0.0036 O.2       3 UNK        -0.5152 
     27 CA         26.3111   27.4359   -1.6074 C.3       3 UNK         0.0319 
     28 CB         26.1878   28.9761   -1.5560 C.3       3 UNK        -0.2001 
     29 N          27.6052   27.0472   -2.1598 N.am      3 UNK        -0.4354 
     30 C          27.9612   27.0770   -3.4479 C.2       2 UNK         0.4964 
     31 O          27.2217   27.4699   -4.3512 O.2       2 UNK        -0.5047 
     32 CA         29.3851   26.6045   -3.8013 C.3       2 UNK         0.0288 
     33 CB         30.2818   27.8103   -4.1287 C.3       2 UNK        -0.2113 
     34 N          30.0448   25.8025   -2.7652 N.am      2 UNK        -0.4145 
     35 C          29.7004   24.5622   -2.3945 C.2       1 UNK         0.5006 
     36 O          28.7434   23.9551   -2.8791 O.2       1 UNK        -0.5103 
     37 C          27.6506   28.2080    5.5006 C.2       5 UNK         0.5055 
     38 O          26.6740   28.8491    5.8938 O.2       5 UNK        -0.5220 
     39 N          28.8832   28.7134    5.3583 N.am      6 UNK        -0.4450 
     40 CA         29.3171   30.1021    5.5690 C.3       6 UNK         0.0367 
     41 CB         29.0260   30.5837    7.0060 C.3       6 UNK        -0.1929 
     42 C          28.8242   31.1031    4.5006 C.2       6 UNK         0.5070 
     43 O          29.1333   32.2900    4.6144 O.2       6 UNK        -0.5237 
     44 N          28.1074   30.6279    3.4722 N.am      7 UNK        -0.4739 
     45 CA         27.7623   31.3902    2.2688 C.3       7 UNK         0.0276 
     46 CB         26.2787   31.1763    1.9256 C.3       7 UNK        -0.1927 
     47 C          28.6559   30.9667    1.0927 C.2       7 UNK         0.5013 
     48 O          29.0172   31.8139    0.2762 O.2       7 UNK        -0.5193 
     49 N          29.0029   29.6710    1.0374 N.am      8 UNK        -0.4253 
     50 CA         29.8953   29.0484    0.0563 C.3       8 UNK         0.0242 
     51 CB         30.0021   27.5486    0.3807 C.3       8 UNK        -0.2000 
     52 C          31.3067   29.6560    0.0280 C.2       8 UNK         0.4948 
     53 O          31.8734   29.8443   -1.0488 O.2       8 UNK        -0.5275 
     54 N          31.8392   29.9308    1.2206 N.am      9 UNK        -0.4246 
     55 CA         33.1786   30.4250    1.5072 C.3       9 UNK         0.0261 
     56 CB         34.2203   29.3208    1.2207 C.3       9 UNK        -0.1959 
     57 C          33.1926   30.8359    2.9855 C.2       9 UNK         0.5033 
     58 O          32.1661   30.7224    3.6636 O.2       9 UNK        -0.5390 
     59 N          34.3587   31.2573    3.4889 N.am      10 UNK        -0.4215 
     60 CA         34.6104   31.4908    4.9138 C.3       10 UNK         0.0240 
     61 CB         35.8495   32.3937    5.0636 C.3       10 UNK        -0.1982 
     62 C          34.7534   30.1529    5.6697 C.2       10 UNK         0.4970 
     63 O          35.8527   29.8031    6.1029 O.2       10 UNK        -0.4916 
     64 N          33.6423   29.4119    5.7677 N.am      11 UNK        -0.4279 
     65 CA         33.5574   28.0669    6.3604 C.3       11 UNK         0.1003 
     66 C          33.8456   27.9969    7.8895 C.2       11 UNK         0.5709 
     67 N          33.7864   29.0981    8.6293 N.am      11 UNK        -0.7358 
     68 O          34.1288   26.9212    8.4113 O.2       11 UNK        -0.4999 
     69 C69        32.2086   27.3665    6.0383 C.3       12 UNK        -0.0954 
     70 S70        31.7763   27.3417    4.2605 S.3       12 UNK        -0.2268 
     71 C71        32.3139   25.6733    3.7540 C.3       12 UNK         0.0203 
     72 H72        35.0313   24.5659   -1.6889 H         1 UNK         0.0888 
     73 H73        34.3455   23.2719   -2.6739 H         1 UNK         0.0888 
     74 H74        34.5001   24.8998   -3.3397 H         1 UNK         0.0888 
     75 H75        32.2274   22.7997   -2.1244 H         1 UNK         0.3017 
     76 H76        30.6294   24.5471   -0.4688 H         1 UNK         0.0873 
     77 H77        29.0312   22.6868   -0.4220 H         1 UNK         0.0745 
     78 H78        29.8754   21.8529   -1.6999 H         1 UNK         0.0745 
     79 H79        30.2489   20.5857    2.3025 H         1 UNK         0.0705 
     80 H80        28.9696   21.4536    1.5047 H         1 UNK         0.0705 
     81 H81        31.7607   23.7407    1.9527 H         1 UNK         0.1334 
     82 H82        30.4747   25.1943    5.7738 H         1 UNK         0.1417 
     83 H83        28.5814   21.7717    4.0622 H         1 UNK         0.1562 
     84 H84        29.0102   23.7904    7.1394 H         1 UNK         0.0748 
     85 H85        28.3958   22.2966    6.4923 H         1 UNK         0.0748 
     86 H86        28.0532   25.9408    7.0528 H         1 UNK         0.0940 
     87 H87        26.3448   26.2348    6.9033 H         1 UNK         0.0940 
     88 H88        28.3923   26.3850    4.6287 H         1 UNK         0.0703 
     89 H89        25.6387   25.9982    4.3558 H         1 UNK         0.3081 
     90 H90        24.9304   25.8787    2.0477 H         1 UNK         0.0719 
     91 H91        24.1243   28.7893    2.6361 H         1 UNK         0.0809 
     92 H92        23.0453   27.5375    2.0204 H         1 UNK         0.0809 
     93 H93        23.7243   27.3984    3.6305 H         1 UNK         0.0809 
     94 H94        24.8903   28.2188    0.3647 H         1 UNK         0.2990 
     95 H95        25.5251   27.0375   -2.2519 H         1 UNK         0.0690 
     96 H96        26.3845   29.4256   -2.5292 H         1 UNK         0.0788 
     97 H97        26.8891   29.4123   -0.8457 H         1 UNK         0.0788 
     98 H98        25.1841   29.2896   -1.2680 H         1 UNK         0.0788 
     99 H99        28.2323   26.6212   -1.4916 H         1 UNK         0.2993 
    100 H100       29.3011   25.9858   -4.6974 H         1 UNK         0.0949 
    101 H101       30.4262   28.4530   -3.2591 H         1 UNK         0.0767 
    102 H102       31.2650   27.4912   -4.4752 H         1 UNK         0.0767 
    103 H103       29.8445   28.4226   -4.9188 H         1 UNK         0.0767 
    104 H104       30.8979   26.1818   -2.3613 H         1 UNK         0.3013 
    105 H105       29.6032   28.1051    4.9880 H         1 UNK         0.3121 
    106 H106       30.4013   30.0785    5.4626 H         1 UNK         0.0774 
    107 H107       29.5132   31.5398    7.2008 H         1 UNK         0.0815 
    108 H108       27.9597   30.7269    7.1810 H         1 UNK         0.0815 
    109 H109       29.3986   29.8758    7.7461 H         1 UNK         0.0815 
    110 H110       27.8709   29.6420    3.4579 H         1 UNK         0.2987 
    111 H111       27.9192   32.4580    2.4364 H         1 UNK         0.0949 
    112 H112       25.9907   31.7757    1.0610 H         1 UNK         0.0806 
    113 H113       26.0607   30.1365    1.6850 H         1 UNK         0.0806 
    114 H114       25.6345   31.4704    2.7543 H         1 UNK         0.0806 
    115 H115       28.5593   29.0362    1.6971 H         1 UNK         0.3010 
    116 H116       29.4505   29.1723   -0.9328 H         1 UNK         0.0829 
    117 H117       29.0329   27.0568    0.3525 H         1 UNK         0.0813 
    118 H118       30.6544   27.0441   -0.3295 H         1 UNK         0.0813 
    119 H119       30.4206   27.3790    1.3738 H         1 UNK         0.0813 
    120 H120       31.2786   29.8089    2.0566 H         1 UNK         0.3038 
    121 H121       33.3764   31.3057    0.8933 H         1 UNK         0.0769 
    122 H122       35.2378   29.6732    1.3905 H         1 UNK         0.0811 
    123 H123       34.1750   28.9835    0.1851 H         1 UNK         0.0811 
    124 H124       34.0634   28.4492    1.8583 H         1 UNK         0.0811 
    125 H125       35.1614   31.3059    2.8780 H         1 UNK         0.3204 
    126 H126       33.7583   32.0228    5.3430 H         1 UNK         0.0748 
    127 H127       36.0594   32.5964    6.1147 H         1 UNK         0.0771 
    128 H128       36.7418   31.9351    4.6351 H         1 UNK         0.0771 
    129 H129       35.6995   33.3562    4.5739 H         1 UNK         0.0771 
    130 H130       32.8106   29.7513    5.2965 H         1 UNK         0.2980 
    131 H131       34.3441   27.4774    5.8858 H         1 UNK         0.0545 
    132 H132       33.5560   29.9839    8.2097 H         1 UNK         0.3459 
    133 H133       33.9780   29.0403    9.6169 H         1 UNK         0.3459 
    134 H134       31.3953   27.8611    6.5717 H         1 UNK         0.0616 
    135 H135       32.2343   26.3424    6.4122 H         1 UNK         0.0616 
    136 H136       33.1708   25.3631    4.3531 H         1 UNK         0.0634 
    137 H137       32.6751   25.7526    2.7274 H         1 UNK         0.0634 
@<TRIPOS>BOND
     1    1    2 1    
     2    1   72 1    
     3    1   73 1    
     4    1   74 1    
     5    2    3 2    
     6    2    4 am   BACKBONE|DICT|INTERRES
     7    4    5 1    
     8    4   75 1    
     9    5    6 1    
    10    5   35 1    
    11    5   76 1    
    12    6    7 1    
    13    6   77 1    
    14    6   78 1    
    15    7    8 1    
    16    8    9 1    
    17    8   79 1    
    18    8   80 1    
    19    9   10 ar   
    20    9   14 ar   
    21   10   11 ar   
    22   10   81 1    
    23   11   12 ar   
    24   11   71 1    
    25   12   13 ar   
    26   12   82 1    
    27   13   14 ar   
    28   13   15 1    
    29   14   83 1    
    30   15   16 1    
    31   15   84 1    
    32   15   85 1    
    33   16   17 1    
    34   17   18 1    
    35   17   86 1    
    36   17   87 1    
    37   18   19 1    
    38   18   37 1    
    39   18   88 1    
    40   19   20 am   BACKBONE|DICT|INTERRES
    41   19   89 1    
    42   20   21 2    
    43   20   22 1    
    44   22   23 1    
    45   22   24 1    
    46   22   90 1    
    47   23   91 1    
    48   23   92 1    
    49   23   93 1    
    50   24   25 am   BACKBONE|DICT|INTERRES
    51   24   94 1    
    52   25   26 2    
    53   25   27 1    
    54   27   28 1    
    55   27   29 1    
    56   27   95 1    
    57   28   96 1    
    58   28   97 1    
    59   28   98 1    
    60   29   30 am   BACKBONE|DICT|INTERRES
    61   29   99 1    
    62   30   31 2    
    63   30   32 1    
    64   32   33 1    
    65   32   34 1    
    66   32  100 1    
    67   33  101 1    
    68   33  102 1    
    69   33  103 1    
    70   34   35 am   BACKBONE|DICT|INTERRES
    71   34  104 1    
    72   35   36 2    
    73   37   38 2    
    74   37   39 am   BACKBONE|DICT|INTERRES
    75   39   40 1    
    76   39  105 1    
    77   40   41 1    
    78   40   42 1    
    79   40  106 1    
    80   41  107 1    
    81   41  108 1    
    82   41  109 1    
    83   42   43 2    
    84   42   44 am   BACKBONE|DICT|INTERRES
    85   44   45 1    
    86   44  110 1    
    87   45   46 1    
    88   45   47 1    
    89   45  111 1    
    90   46  112 1    
    91   46  113 1    
    92   46  114 1    
    93   47   48 2    
    94   47   49 am   BACKBONE|DICT|INTERRES
    95   49   50 1    
    96   49  115 1    
    97   50   51 1    
    98   50   52 1    
    99   50  116 1    
   100   51  117 1    
   101   51  118 1    
   102   51  119 1    
   103   52   53 2    
   104   52   54 am   BACKBONE|DICT|INTERRES
   105   54   55 1    
   106   54  120 1    
   107   55   56 1    
   108   55   57 1    
   109   55  121 1    
   110   56  122 1    
   111   56  123 1    
   112   56  124 1    
   113   57   58 2    
   114   57   59 am   BACKBONE|DICT|INTERRES
   115   59   60 1    
   116   59  125 1    
   117   60   61 1    
   118   60   62 1    
   119   60  126 1    
   120   61  127 1    
   121   61  128 1    
   122   61  129 1    
   123   62   63 2    
   124   62   64 am   BACKBONE|DICT|INTERRES
   125   64   65 1    
   126   64  130 1    
   127   65   66 1    
   128   65   69 1    
   129   65  131 1    
   130   66   67 am   BACKBONE|DICT|INTERRES
   131   66   68 2    
   132   67  132 1    
   133   67  133 1    
   134   69   70 1    
   135   69  134 1    
   136   69  135 1    
   137   70   71 1    
   138   71  136 1    
   139   71  137 1    
@<TRIPOS>SUBSTRUCTURE
     1 UNK         1 GROUP             0       ****    0 ROOT    
