@<TRIPOS>MOLECULE
3R136
137   139    1
SMALL
USER_CHARGES


@<TRIPOS>ATOM
      1 CA         25.3339   20.1686    0.7396 C.3       0 UNK        -0.1979 
      2 C          26.0966   21.4054    0.2886 C.2       0 UNK         0.4864 
      3 O          25.5671   22.2022   -0.4860 O.2       0 UNK        -0.5359 
      4 N          27.3357   21.5731    0.7696 N.am      1 UNK        -0.4318 
      5 CA         28.2134   22.7076    0.4546 C.3       1 UNK         0.0824 
      6 C6         29.7056   22.3182    0.5387 C.3       12 UNK        -0.0944 
      7 S7         30.2343   21.6113    2.1401 S.3       12 UNK        -0.2672 
      8 C8         31.9250   21.0545    1.7356 C.3       12 UNK         0.0333 
      9 C9         32.8065   22.2273    1.3339 C.ar      12 UNK        -0.0807 
     10 C10        33.4523   22.9922    2.3091 C.ar      12 UNK        -0.0894 
     11 C11        34.1745   24.1342    1.9493 C.ar      12 UNK        -0.0804 
     12 C12        34.2478   24.5084    0.6043 C.ar      12 UNK        -0.0824 
     13 C13        33.5877   23.7589   -0.3760 C.ar      12 UNK        -0.0762 
     14 C14        32.9099   22.5945   -0.0107 C.ar      12 UNK        -0.0782 
     15 C15        33.5006   24.2656   -1.8103 C.3       12 UNK         0.0230 
     16 S16        31.8308   24.9207   -2.1832 S.3       12 UNK        -0.2608 
     17 C17        31.5625   26.0052   -0.7428 C.3       12 UNK        -0.0989 
     18 CA         30.5954   27.1849   -0.9883 C.3       5 UNK         0.0716 
     19 N          29.2064   26.7770   -1.2064 N.am      5 UNK        -0.4135 
     20 C          28.3879   27.3557   -2.0944 C.2       4 UNK         0.5031 
     21 O          28.7533   28.1620   -2.9512 O.2       4 UNK        -0.5229 
     22 CA         26.8949   27.0059   -1.9836 C.3       4 UNK         0.0329 
     23 CB         26.6261   25.5546   -2.4135 C.3       4 UNK        -0.2001 
     24 N          26.3629   27.2301   -0.6372 N.am      4 UNK        -0.4303 
     25 C          26.2610   28.4156   -0.0192 C.2       3 UNK         0.5044 
     26 O          26.5892   29.4820   -0.5376 O.2       3 UNK        -0.5152 
     27 CA         25.7037   28.4368    1.4207 C.3       3 UNK         0.0319 
     28 CB         24.1781   28.6555    1.4234 C.3       3 UNK        -0.2001 
     29 N          26.0942   27.2907    2.2570 N.am      3 UNK        -0.4354 
     30 C          25.7451   26.0053    2.1108 C.2       2 UNK         0.4964 
     31 O          24.9576   25.5964    1.2555 O.2       2 UNK        -0.5047 
     32 CA         26.4398   24.9896    3.0312 C.3       2 UNK         0.0288 
     33 CB         25.4544   24.4368    4.0732 C.3       2 UNK        -0.2113 
     34 N          26.9996   23.8800    2.2572 N.am      2 UNK        -0.4145 
     35 C          27.8956   23.9880    1.2623 C.2       1 UNK         0.5006 
     36 O          28.4514   25.0497    0.9543 O.2       1 UNK        -0.5103 
     37 C          30.6377   28.1169    0.2299 C.2       5 UNK         0.5055 
     38 O          31.1791   29.2196    0.1391 O.2       5 UNK        -0.5220 
     39 N          30.0779   27.6522    1.3574 N.am      6 UNK        -0.4450 
     40 CA         30.1427   28.3166    2.6592 C.3       6 UNK         0.0367 
     41 CB         29.9876   27.2578    3.7646 C.3       6 UNK        -0.1929 
     42 C          29.1188   29.4603    2.7807 C.2       6 UNK         0.5070 
     43 O          28.3074   29.4638    3.7082 O.2       6 UNK        -0.5237 
     44 N          29.1753   30.4111    1.8411 N.am      7 UNK        -0.4739 
     45 CA         28.3452   31.6153    1.7649 C.3       7 UNK         0.0276 
     46 CB         28.6595   32.3520    0.4517 C.3       7 UNK        -0.1927 
     47 C          28.5715   32.5179    2.9876 C.2       7 UNK         0.5013 
     48 O          29.5867   33.2121    3.0458 O.2       7 UNK        -0.5193 
     49 N          27.6568   32.4309    3.9644 N.am      8 UNK        -0.4253 
     50 CA         27.7407   33.0368    5.3000 C.3       8 UNK         0.0242 
     51 CB         27.6509   34.5765    5.2177 C.3       8 UNK        -0.2000 
     52 C          28.9674   32.5405    6.0961 C.2       8 UNK         0.4948 
     53 O          29.6145   33.3335    6.7822 O.2       8 UNK        -0.5275 
     54 N          29.2567   31.2329    5.9800 N.am      9 UNK        -0.4246 
     55 CA         30.3806   30.5141    6.5943 C.3       9 UNK         0.0261 
     56 CB         30.2659   30.5061    8.1344 C.3       9 UNK        -0.1959 
     57 C          31.7517   31.0062    6.0875 C.2       9 UNK         0.5033 
     58 O          32.6501   31.2724    6.8870 O.2       9 UNK        -0.5390 
     59 N          31.8847   31.1093    4.7568 N.am      10 UNK        -0.4215 
     60 CA         33.0951   31.5457    4.0488 C.3       10 UNK         0.0240 
     61 CB         32.7740   31.7060    2.5527 C.3       10 UNK        -0.1982 
     62 C          34.3278   30.6349    4.2219 C.2       10 UNK         0.4970 
     63 O          35.4452   31.1127    4.0200 O.2       10 UNK        -0.4916 
     64 N          34.1170   29.3548    4.5581 N.am      11 UNK        -0.4279 
     65 CA         35.1726   28.3595    4.8047 C.3       11 UNK         0.1003 
     66 C          36.0987   28.7453    5.9918 C.2       11 UNK         0.5709 
     67 N          37.4046   28.5638    5.8477 N.am      11 UNK        -0.7358 
     68 O          35.6395   29.1588    7.0545 O.2       11 UNK        -0.4999 
     69 C69        34.5753   26.9474    5.0315 C.3       12 UNK        -0.0954 
     70 S70        33.6916   26.3078    3.5707 S.3       12 UNK        -0.2268 
     71 C71        34.8246   24.9928    3.0218 C.3       12 UNK         0.0203 
     72 H72        24.4154   20.4590    1.2489 H         1 UNK         0.0888 
     73 H73        25.0672   19.5579   -0.1226 H         1 UNK         0.0888 
     74 H74        25.9205   19.5534    1.4219 H         1 UNK         0.0888 
     75 H75        27.7307   20.8863    1.3980 H         1 UNK         0.3017 
     76 H76        28.0316   22.9785   -0.5872 H         1 UNK         0.0873 
     77 H77        29.9262   21.5878   -0.2413 H         1 UNK         0.0745 
     78 H78        30.3225   23.1881    0.3128 H         1 UNK         0.0745 
     79 H79        31.8844   20.3129    0.9363 H         1 UNK         0.0705 
     80 H80        32.3511   20.5483    2.6031 H         1 UNK         0.0705 
     81 H81        33.3589   22.7214    3.3521 H         1 UNK         0.1334 
     82 H82        34.7682   25.4164    0.3313 H         1 UNK         0.1417 
     83 H83        32.3852   22.0259   -0.7665 H         1 UNK         0.1562 
     84 H84        33.7337   23.4562   -2.5036 H         1 UNK         0.0748 
     85 H85        34.2401   25.0478   -1.9887 H         1 UNK         0.0748 
     86 H86        32.5365   26.4033   -0.4515 H         1 UNK         0.0940 
     87 H87        31.2263   25.3880    0.0927 H         1 UNK         0.0940 
     88 H88        30.9662   27.7471   -1.8482 H         1 UNK         0.0703 
     89 H89        28.8160   26.1258   -0.5306 H         1 UNK         0.3081 
     90 H90        26.3510   27.6638   -2.6648 H         1 UNK         0.0719 
     91 H91        25.5573   25.3409   -2.4378 H         1 UNK         0.0809 
     92 H92        27.0172   25.3641   -3.4139 H         1 UNK         0.0809 
     93 H93        27.0911   24.8371   -1.7384 H         1 UNK         0.0809 
     94 H94        26.0085   26.4207   -0.1365 H         1 UNK         0.2990 
     95 H95        26.1472   29.3042    1.9084 H         1 UNK         0.0690 
     96 H96        23.6459   27.8493    0.9181 H         1 UNK         0.0788 
     97 H97        23.9197   29.5820    0.9090 H         1 UNK         0.0788 
     98 H98        23.7898   28.7299    2.4392 H         1 UNK         0.0788 
     99 H99        26.7532   27.5220    2.9888 H         1 UNK         0.2993 
    100 H100       27.2603   25.4739    3.5583 H         1 UNK         0.0949 
    101 H101       24.6195   23.9155    3.6025 H         1 UNK         0.0767 
    102 H102       25.9446   23.7407    4.7542 H         1 UNK         0.0767 
    103 H103       25.0360   25.2415    4.6795 H         1 UNK         0.0767 
    104 H104       26.5886   22.9723    2.4136 H         1 UNK         0.3013 
    105 H105       29.6173   26.7486    1.3370 H         1 UNK         0.3121 
    106 H106       31.1357   28.7566    2.7707 H         1 UNK         0.0774 
    107 H107       30.1656   27.6872    4.7498 H         1 UNK         0.0815 
    108 H108       28.9879   26.8312    3.7748 H         1 UNK         0.0815 
    109 H109       30.6957   26.4390    3.6382 H         1 UNK         0.0815 
    110 H110       29.8802   30.3002    1.1174 H         1 UNK         0.2987 
    111 H111       27.2968   31.3151    1.7362 H         1 UNK         0.0949 
    112 H112       29.7110   32.6352    0.3864 H         1 UNK         0.0806 
    113 H113       28.4259   31.7312   -0.4138 H         1 UNK         0.0806 
    114 H114       28.0685   33.2646    0.3649 H         1 UNK         0.0806 
    115 H115       26.8859   31.7905    3.8292 H         1 UNK         0.3010 
    116 H116       26.8657   32.6877    5.8505 H         1 UNK         0.0829 
    117 H117       27.5798   35.0168    6.2130 H         1 UNK         0.0813 
    118 H118       28.5273   35.0097    4.7347 H         1 UNK         0.0813 
    119 H119       26.7694   34.8937    4.6608 H         1 UNK         0.0813 
    120 H120       28.6738   30.6762    5.3615 H         1 UNK         0.3038 
    121 H121       30.2919   29.4788    6.2653 H         1 UNK         0.0769 
    122 H122       31.0297   29.8661    8.5778 H         1 UNK         0.0811 
    123 H123       29.2974   30.1256    8.4586 H         1 UNK         0.0811 
    124 H124       30.3947   31.5022    8.5589 H         1 UNK         0.0811 
    125 H125       31.0658   30.9602    4.1882 H         1 UNK         0.3204 
    126 H126       33.3658   32.5264    4.4454 H         1 UNK         0.0748 
    127 H127       33.6495   32.0480    1.9988 H         1 UNK         0.0771 
    128 H128       32.4544   30.7661    2.1019 H         1 UNK         0.0771 
    129 H129       31.9894   32.4432    2.3877 H         1 UNK         0.0771 
    130 H130       33.1726   29.0426    4.7147 H         1 UNK         0.2980 
    131 H131       35.7865   28.3226    3.9024 H         1 UNK         0.0545 
    132 H132       37.7915   28.2141    4.9850 H         1 UNK         0.3459 
    133 H133       38.0177   28.7924    6.6145 H         1 UNK         0.3459 
    134 H134       35.3604   26.2402    5.3057 H         1 UNK         0.0616 
    135 H135       33.8784   26.9591    5.8716 H         1 UNK         0.0616 
    136 H136       35.7457   25.4404    2.6453 H         1 UNK         0.0634 
    137 H137       35.1044   24.3695    3.8725 H         1 UNK         0.0634 
@<TRIPOS>BOND
     1    1    2 1    
     2    1   72 1    
     3    1   73 1    
     4    1   74 1    
     5    2    3 2    
     6    2    4 am   BACKBONE|DICT|INTERRES
     7    4    5 1    
     8    4   75 1    
     9    5    6 1    
    10    5   35 1    
    11    5   76 1    
    12    6    7 1    
    13    6   77 1    
    14    6   78 1    
    15    7    8 1    
    16    8    9 1    
    17    8   79 1    
    18    8   80 1    
    19    9   10 ar   
    20    9   14 ar   
    21   10   11 ar   
    22   10   81 1    
    23   11   12 ar   
    24   11   71 1    
    25   12   13 ar   
    26   12   82 1    
    27   13   14 ar   
    28   13   15 1    
    29   14   83 1    
    30   15   16 1    
    31   15   84 1    
    32   15   85 1    
    33   16   17 1    
    34   17   18 1    
    35   17   86 1    
    36   17   87 1    
    37   18   19 1    
    38   18   37 1    
    39   18   88 1    
    40   19   20 am   BACKBONE|DICT|INTERRES
    41   19   89 1    
    42   20   21 2    
    43   20   22 1    
    44   22   23 1    
    45   22   24 1    
    46   22   90 1    
    47   23   91 1    
    48   23   92 1    
    49   23   93 1    
    50   24   25 am   BACKBONE|DICT|INTERRES
    51   24   94 1    
    52   25   26 2    
    53   25   27 1    
    54   27   28 1    
    55   27   29 1    
    56   27   95 1    
    57   28   96 1    
    58   28   97 1    
    59   28   98 1    
    60   29   30 am   BACKBONE|DICT|INTERRES
    61   29   99 1    
    62   30   31 2    
    63   30   32 1    
    64   32   33 1    
    65   32   34 1    
    66   32  100 1    
    67   33  101 1    
    68   33  102 1    
    69   33  103 1    
    70   34   35 am   BACKBONE|DICT|INTERRES
    71   34  104 1    
    72   35   36 2    
    73   37   38 2    
    74   37   39 am   BACKBONE|DICT|INTERRES
    75   39   40 1    
    76   39  105 1    
    77   40   41 1    
    78   40   42 1    
    79   40  106 1    
    80   41  107 1    
    81   41  108 1    
    82   41  109 1    
    83   42   43 2    
    84   42   44 am   BACKBONE|DICT|INTERRES
    85   44   45 1    
    86   44  110 1    
    87   45   46 1    
    88   45   47 1    
    89   45  111 1    
    90   46  112 1    
    91   46  113 1    
    92   46  114 1    
    93   47   48 2    
    94   47   49 am   BACKBONE|DICT|INTERRES
    95   49   50 1    
    96   49  115 1    
    97   50   51 1    
    98   50   52 1    
    99   50  116 1    
   100   51  117 1    
   101   51  118 1    
   102   51  119 1    
   103   52   53 2    
   104   52   54 am   BACKBONE|DICT|INTERRES
   105   54   55 1    
   106   54  120 1    
   107   55   56 1    
   108   55   57 1    
   109   55  121 1    
   110   56  122 1    
   111   56  123 1    
   112   56  124 1    
   113   57   58 2    
   114   57   59 am   BACKBONE|DICT|INTERRES
   115   59   60 1    
   116   59  125 1    
   117   60   61 1    
   118   60   62 1    
   119   60  126 1    
   120   61  127 1    
   121   61  128 1    
   122   61  129 1    
   123   62   63 2    
   124   62   64 am   BACKBONE|DICT|INTERRES
   125   64   65 1    
   126   64  130 1    
   127   65   66 1    
   128   65   69 1    
   129   65  131 1    
   130   66   67 am   BACKBONE|DICT|INTERRES
   131   66   68 2    
   132   67  132 1    
   133   67  133 1    
   134   69   70 1    
   135   69  134 1    
   136   69  135 1    
   137   70   71 1    
   138   71  136 1    
   139   71  137 1    
@<TRIPOS>SUBSTRUCTURE
     1 UNK         1 GROUP             0       ****    0 ROOT    
