@<TRIPOS>MOLECULE
3R136
137   139    1
SMALL
USER_CHARGES


@<TRIPOS>ATOM
      1 CA         24.2029   21.0484    1.8411 C.3       0 UNK        -0.1979 
      2 C          25.4760   21.6483    1.2624 C.2       0 UNK         0.4864 
      3 O          25.6757   22.8578    1.3738 O.2       0 UNK        -0.5359 
      4 N          26.3286   20.8038    0.6599 N.am      1 UNK        -0.4318 
      5 CA         27.5927   21.1341   -0.0159 C.3       1 UNK         0.0824 
      6 C6         28.5436   21.9920    0.8658 C.3       12 UNK        -0.0944 
      7 S7         30.2986   21.9017    0.3711 S.3       12 UNK        -0.2672 
      8 C8         31.1379   21.8459    1.9878 C.3       12 UNK         0.0333 
      9 C9         30.9460   23.1401    2.7663 C.ar      12 UNK        -0.0807 
     10 C10        31.7458   24.2524    2.4921 C.ar      12 UNK        -0.0894 
     11 C11        31.5607   25.4511    3.1885 C.ar      12 UNK        -0.0804 
     12 C12        30.5730   25.5289    4.1771 C.ar      12 UNK        -0.0824 
     13 C13        29.7479   24.4283    4.4405 C.ar      12 UNK        -0.0762 
     14 C14        29.9562   23.2325    3.7482 C.ar      12 UNK        -0.0782 
     15 C15        28.5971   24.5266    5.4343 C.3       12 UNK         0.0230 
     16 S16        26.9763   24.5246    4.5855 S.3       12 UNK        -0.2608 
     17 C17        26.8020   26.2707    4.0863 C.3       12 UNK        -0.0989 
     18 CA         27.5443   26.5874    2.7629 C.3       5 UNK         0.0716 
     19 N          26.9379   26.0127    1.5627 N.am      5 UNK        -0.4135 
     20 C          25.8613   26.4307    0.8836 C.2       4 UNK         0.5031 
     21 O          25.0774   27.2940    1.2820 O.2       4 UNK        -0.5229 
     22 CA         25.6603   25.7831   -0.5057 C.3       4 UNK         0.0329 
     23 CB         24.7749   26.6329   -1.4419 C.3       4 UNK        -0.2001 
     24 N          26.9305   25.4331   -1.1651 N.am      4 UNK        -0.4303 
     25 C          27.9391   26.2674   -1.4808 C.2       3 UNK         0.5044 
     26 O          27.8917   27.4869   -1.3210 O.2       3 UNK        -0.5152 
     27 CA         29.2522   25.6531   -2.0078 C.3       3 UNK         0.0319 
     28 CB         30.3575   25.7758   -0.9425 C.3       3 UNK        -0.2001 
     29 N          29.1344   24.2460   -2.3888 N.am      3 UNK        -0.4354 
     30 C          28.5411   23.7888   -3.5010 C.2       2 UNK         0.4964 
     31 O          28.1005   24.5141   -4.3926 O.2       2 UNK        -0.5047 
     32 CA         28.3818   22.2597   -3.6163 C.3       2 UNK         0.0288 
     33 CB         29.5267   21.6587   -4.4476 C.3       2 UNK        -0.2113 
     34 N          28.3255   21.5883   -2.3111 N.am      2 UNK        -0.4145 
     35 C          27.3593   21.7777   -1.4002 C.2       1 UNK         0.5006 
     36 O          26.3660   22.4760   -1.6152 O.2       1 UNK        -0.5103 
     37 C          27.8591   28.0872    2.6066 C.2       5 UNK         0.5055 
     38 O          27.1262   28.9367    3.1191 O.2       5 UNK        -0.5220 
     39 N          28.9786   28.3838    1.9319 N.am      6 UNK        -0.4450 
     40 CA         29.5379   29.7264    1.7507 C.3       6 UNK         0.0367 
     41 CB         30.5328   29.6992    0.5759 C.3       6 UNK        -0.1929 
     42 C          30.1688   30.2816    3.0462 C.2       6 UNK         0.5070 
     43 O          31.3593   30.5954    3.0787 O.2       6 UNK        -0.5237 
     44 N          29.3524   30.4106    4.0990 N.am      7 UNK        -0.4739 
     45 CA         29.7258   30.9384    5.4171 C.3       7 UNK         0.0276 
     46 CB         28.5926   30.6424    6.4119 C.3       7 UNK        -0.1927 
     47 C          30.0759   32.4395    5.4156 C.2       7 UNK         0.5013 
     48 O          30.6870   32.9190    6.3701 O.2       7 UNK        -0.5193 
     49 N          29.6965   33.1503    4.3452 N.am      8 UNK        -0.4253 
     50 CA         30.1100   34.5255    4.0628 C.3       8 UNK         0.0242 
     51 CB         29.0940   35.1598    3.0978 C.3       8 UNK        -0.2000 
     52 C          31.5358   34.6187    3.4812 C.2       8 UNK         0.4948 
     53 O          32.0867   35.7204    3.4450 O.2       8 UNK        -0.5275 
     54 N          32.0960   33.4908    3.0196 N.am      9 UNK        -0.4246 
     55 CA         33.4435   33.3767    2.4654 C.3       9 UNK         0.0261 
     56 CB         33.3688   32.6040    1.1311 C.3       9 UNK        -0.1959 
     57 C          34.3744   32.7259    3.5058 C.2       9 UNK         0.5033 
     58 O          34.2242   32.9767    4.7042 O.2       9 UNK        -0.5390 
     59 N          35.3297   31.9084    3.0399 N.am      10 UNK        -0.4215 
     60 CA         36.3766   31.2602    3.8399 C.3       10 UNK         0.0240 
     61 CB         37.3058   30.4692    2.9042 C.3       10 UNK        -0.1982 
     62 C          35.8703   30.3543    4.9784 C.2       10 UNK         0.4970 
     63 O          36.5896   30.1829    5.9637 O.2       10 UNK        -0.4916 
     64 N          34.6586   29.8029    4.8352 N.am      11 UNK        -0.4279 
     65 CA         33.9854   29.0035    5.8712 C.3       11 UNK         0.1003 
     66 C          33.3204   29.8547    6.9926 C.2       11 UNK         0.5709 
     67 N          33.2982   31.1796    6.9083 N.am      11 UNK        -0.7358 
     68 O          32.8159   29.2984    7.9648 O.2       11 UNK        -0.4999 
     69 C69        32.9826   27.9881    5.2631 C.3       12 UNK        -0.0954 
     70 S70        33.7647   26.8992    4.0241 S.3       12 UNK        -0.2268 
     71 C71        32.4083   26.6653    2.8385 C.3       12 UNK         0.0203 
     72 H72        23.3302   21.4918    1.3625 H         1 UNK         0.0888 
     73 H73        24.1568   19.9688    1.6987 H         1 UNK         0.0888 
     74 H74        24.1462   21.2525    2.9100 H         1 UNK         0.0888 
     75 H75        26.0685   19.8290    0.6012 H         1 UNK         0.3017 
     76 H76        28.0719   20.1688   -0.1880 H         1 UNK         0.0873 
     77 H77        28.2413   23.0404    0.8837 H         1 UNK         0.0745 
     78 H78        28.4664   21.6444    1.8959 H         1 UNK         0.0745 
     79 H79        32.2026   21.6712    1.8264 H         1 UNK         0.0705 
     80 H80        30.7732   20.9915    2.5601 H         1 UNK         0.0705 
     81 H81        32.5037   24.1867    1.7232 H         1 UNK         0.1334 
     82 H82        30.4190   26.4580    4.7086 H         1 UNK         0.1417 
     83 H83        29.3208   22.3825    3.9560 H         1 UNK         0.1562 
     84 H84        28.6918   25.4138    6.0622 H         1 UNK         0.0748 
     85 H85        28.6386   23.6712    6.1101 H         1 UNK         0.0748 
     86 H86        27.1724   26.8893    4.9063 H         1 UNK         0.0940 
     87 H87        25.7412   26.5087    3.9915 H         1 UNK         0.0940 
     88 H88        28.5110   26.1000    2.8014 H         1 UNK         0.0703 
     89 H89        27.4516   25.2480    1.1527 H         1 UNK         0.3081 
     90 H90        25.1392   24.8412   -0.3302 H         1 UNK         0.0719 
     91 H91        25.2006   27.6217   -1.6148 H         1 UNK         0.0809 
     92 H92        24.6440   26.1490   -2.4098 H         1 UNK         0.0809 
     93 H93        23.7814   26.7770   -1.0157 H         1 UNK         0.0809 
     94 H94        27.0392   24.4450   -1.3655 H         1 UNK         0.2990 
     95 H95        29.5537   26.2270   -2.8866 H         1 UNK         0.0690 
     96 H96        31.3082   25.3903   -1.3112 H         1 UNK         0.0788 
     97 H97        30.1072   25.2297   -0.0317 H         1 UNK         0.0788 
     98 H98        30.5218   26.8178   -0.6660 H         1 UNK         0.0788 
     99 H99        29.4914   23.5699   -1.7284 H         1 UNK         0.2993 
    100 H100       27.4395   22.0682   -4.1346 H         1 UNK         0.0949 
    101 H101       30.4953   21.8046   -3.9673 H         1 UNK         0.0767 
    102 H102       29.3855   20.5888   -4.6028 H         1 UNK         0.0767 
    103 H103       29.5782   22.1231   -5.4335 H         1 UNK         0.0767 
    104 H104       29.1210   21.0165   -2.0622 H         1 UNK         0.3013 
    105 H105       29.5176   27.6262    1.5411 H         1 UNK         0.3121 
    106 H106       28.7239   30.4007    1.4760 H         1 UNK         0.0774 
    107 H107       30.9188   30.6983    0.3706 H         1 UNK         0.0815 
    108 H108       31.3885   29.0548    0.7799 H         1 UNK         0.0815 
    109 H109       30.0553   29.3475   -0.3391 H         1 UNK         0.0815 
    110 H110       28.3922   30.0954    3.9803 H         1 UNK         0.2987 
    111 H111       30.6189   30.4054    5.7479 H         1 UNK         0.0949 
    112 H112       28.3962   29.5723    6.4827 H         1 UNK         0.0806 
    113 H113       28.8512   30.9895    7.4134 H         1 UNK         0.0806 
    114 H114       27.6640   31.1366    6.1239 H         1 UNK         0.0806 
    115 H115       29.1672   32.6754    3.6289 H         1 UNK         0.3010 
    116 H116       30.0993   35.0947    4.9950 H         1 UNK         0.0829 
    117 H117       28.0881   35.1519    3.5182 H         1 UNK         0.0813 
    118 H118       29.3483   36.2006    2.8922 H         1 UNK         0.0813 
    119 H119       29.0638   34.6374    2.1407 H         1 UNK         0.0813 
    120 H120       31.6124   32.6091    3.1529 H         1 UNK         0.3038 
    121 H121       33.8489   34.3684    2.2552 H         1 UNK         0.0769 
    122 H122       34.3176   32.6391    0.5946 H         1 UNK         0.0811 
    123 H123       32.6202   33.0390    0.4686 H         1 UNK         0.0811 
    124 H124       33.1061   31.5559    1.2793 H         1 UNK         0.0811 
    125 H125       35.3691   31.7523    2.0431 H         1 UNK         0.3204 
    126 H126       36.9608   32.0564    4.3058 H         1 UNK         0.0748 
    127 H127       38.1162   29.9990    3.4634 H         1 UNK         0.0771 
    128 H128       36.7701   29.6767    2.3797 H         1 UNK         0.0771 
    129 H129       37.7658   31.1172    2.1577 H         1 UNK         0.0771 
    130 H130       34.1201   30.0022    4.0053 H         1 UNK         0.2980 
    131 H131       34.7518   28.4145    6.3787 H         1 UNK         0.0545 
    132 H132       32.8392   31.7106    7.6308 H         1 UNK         0.3459 
    133 H133       33.6935   31.6672    6.1109 H         1 UNK         0.3459 
    134 H134       32.1451   28.5211    4.8115 H         1 UNK         0.0616 
    135 H135       32.5582   27.3511    6.0411 H         1 UNK         0.0616 
    136 H136       31.7871   27.5593    2.7856 H         1 UNK         0.0634 
    137 H137       32.8408   26.5458    1.8439 H         1 UNK         0.0634 
@<TRIPOS>BOND
     1    1    2 1    
     2    1   72 1    
     3    1   73 1    
     4    1   74 1    
     5    2    3 2    
     6    2    4 am   BACKBONE|DICT|INTERRES
     7    4    5 1    
     8    4   75 1    
     9    5    6 1    
    10    5   35 1    
    11    5   76 1    
    12    6    7 1    
    13    6   77 1    
    14    6   78 1    
    15    7    8 1    
    16    8    9 1    
    17    8   79 1    
    18    8   80 1    
    19    9   10 ar   
    20    9   14 ar   
    21   10   11 ar   
    22   10   81 1    
    23   11   12 ar   
    24   11   71 1    
    25   12   13 ar   
    26   12   82 1    
    27   13   14 ar   
    28   13   15 1    
    29   14   83 1    
    30   15   16 1    
    31   15   84 1    
    32   15   85 1    
    33   16   17 1    
    34   17   18 1    
    35   17   86 1    
    36   17   87 1    
    37   18   19 1    
    38   18   37 1    
    39   18   88 1    
    40   19   20 am   BACKBONE|DICT|INTERRES
    41   19   89 1    
    42   20   21 2    
    43   20   22 1    
    44   22   23 1    
    45   22   24 1    
    46   22   90 1    
    47   23   91 1    
    48   23   92 1    
    49   23   93 1    
    50   24   25 am   BACKBONE|DICT|INTERRES
    51   24   94 1    
    52   25   26 2    
    53   25   27 1    
    54   27   28 1    
    55   27   29 1    
    56   27   95 1    
    57   28   96 1    
    58   28   97 1    
    59   28   98 1    
    60   29   30 am   BACKBONE|DICT|INTERRES
    61   29   99 1    
    62   30   31 2    
    63   30   32 1    
    64   32   33 1    
    65   32   34 1    
    66   32  100 1    
    67   33  101 1    
    68   33  102 1    
    69   33  103 1    
    70   34   35 am   BACKBONE|DICT|INTERRES
    71   34  104 1    
    72   35   36 2    
    73   37   38 2    
    74   37   39 am   BACKBONE|DICT|INTERRES
    75   39   40 1    
    76   39  105 1    
    77   40   41 1    
    78   40   42 1    
    79   40  106 1    
    80   41  107 1    
    81   41  108 1    
    82   41  109 1    
    83   42   43 2    
    84   42   44 am   BACKBONE|DICT|INTERRES
    85   44   45 1    
    86   44  110 1    
    87   45   46 1    
    88   45   47 1    
    89   45  111 1    
    90   46  112 1    
    91   46  113 1    
    92   46  114 1    
    93   47   48 2    
    94   47   49 am   BACKBONE|DICT|INTERRES
    95   49   50 1    
    96   49  115 1    
    97   50   51 1    
    98   50   52 1    
    99   50  116 1    
   100   51  117 1    
   101   51  118 1    
   102   51  119 1    
   103   52   53 2    
   104   52   54 am   BACKBONE|DICT|INTERRES
   105   54   55 1    
   106   54  120 1    
   107   55   56 1    
   108   55   57 1    
   109   55  121 1    
   110   56  122 1    
   111   56  123 1    
   112   56  124 1    
   113   57   58 2    
   114   57   59 am   BACKBONE|DICT|INTERRES
   115   59   60 1    
   116   59  125 1    
   117   60   61 1    
   118   60   62 1    
   119   60  126 1    
   120   61  127 1    
   121   61  128 1    
   122   61  129 1    
   123   62   63 2    
   124   62   64 am   BACKBONE|DICT|INTERRES
   125   64   65 1    
   126   64  130 1    
   127   65   66 1    
   128   65   69 1    
   129   65  131 1    
   130   66   67 am   BACKBONE|DICT|INTERRES
   131   66   68 2    
   132   67  132 1    
   133   67  133 1    
   134   69   70 1    
   135   69  134 1    
   136   69  135 1    
   137   70   71 1    
   138   71  136 1    
   139   71  137 1    
@<TRIPOS>SUBSTRUCTURE
     1 UNK         1 GROUP             0       ****    0 ROOT    
