@<TRIPOS>MOLECULE
3R136
137   139    1
SMALL
USER_CHARGES


@<TRIPOS>ATOM
      1 CA         26.8439   25.6114    4.1065 C.3       0 UNK        -0.1979 
      2 C          27.6367   24.7385    3.1455 C.2       0 UNK         0.4864 
      3 O          27.8142   25.1136    1.9832 O.2       0 UNK        -0.5359 
      4 N          28.1081   23.5833    3.6348 N.am      1 UNK        -0.4318 
      5 CA         28.9457   22.6021    2.9402 C.3       1 UNK         0.0824 
      6 C6         30.3849   23.1282    2.6882 C.3       12 UNK        -0.0944 
      7 S7         31.6253   21.7858    2.5981 S.3       12 UNK        -0.2672 
      8 C8         32.2719   21.8925    0.8935 C.3       12 UNK         0.0333 
      9 C9         32.7429   23.2979    0.5510 C.ar      12 UNK        -0.0807 
     10 C10        33.8374   23.8650    1.2105 C.ar      12 UNK        -0.0894 
     11 C11        34.1704   25.2076    1.0009 C.ar      12 UNK        -0.0804 
     12 C12        33.4289   25.9678    0.0907 C.ar      12 UNK        -0.0824 
     13 C13        32.3473   25.4014   -0.5886 C.ar      12 UNK        -0.0762 
     14 C14        32.0270   24.0610   -0.3728 C.ar      12 UNK        -0.0782 
     15 C15        31.4681   26.2500   -1.4947 C.3       12 UNK         0.0230 
     16 S16        29.8077   26.4701   -0.7724 S.3       12 UNK        -0.2608 
     17 C17        30.2085   27.2827    0.8142 C.3       12 UNK        -0.0989 
     18 CA         29.2168   28.4169    1.1519 C.3       5 UNK         0.0716 
     19 N          27.8433   27.9184    1.2928 N.am      5 UNK        -0.4135 
     20 C          26.7468   28.6851    1.3842 C.2       4 UNK         0.5031 
     21 O          26.7812   29.9162    1.4316 O.2       4 UNK        -0.5229 
     22 CA         25.3993   27.9486    1.4236 C.3       4 UNK         0.0329 
     23 CB         24.1951   28.8758    1.1684 C.3       4 UNK        -0.2001 
     24 N          25.4047   26.8618    0.4459 N.am      4 UNK        -0.4303 
     25 C          24.8455   25.6585    0.6128 C.2       3 UNK         0.5044 
     26 O          24.2367   25.3107    1.6248 O.2       3 UNK        -0.5152 
     27 CA         25.0052   24.6701   -0.5460 C.3       3 UNK         0.0319 
     28 CB         24.9654   25.3494   -1.9347 C.3       3 UNK        -0.2001 
     29 N          26.2488   23.9225   -0.3683 N.am      3 UNK        -0.4354 
     30 C          26.5279   22.7645   -0.9826 C.2       2 UNK         0.4964 
     31 O          25.7406   22.1834   -1.7311 O.2       2 UNK        -0.5047 
     32 CA         27.9176   22.1450   -0.7568 C.3       2 UNK         0.0288 
     33 CB         28.8510   22.4982   -1.9262 C.3       2 UNK        -0.2113 
     34 N          28.5387   22.5527    0.5045 N.am      2 UNK        -0.4145 
     35 C          28.2285   22.0295    1.6988 C.2       1 UNK         0.5006 
     36 O          27.3981   21.1315    1.8533 O.2       1 UNK        -0.5103 
     37 C          29.7050   29.2149    2.3770 C.2       5 UNK         0.5055 
     38 O          30.6104   30.0379    2.2338 O.2       5 UNK        -0.5220 
     39 N          29.0798   29.0034    3.5434 N.am      6 UNK        -0.4450 
     40 CA         29.3402   29.7040    4.8026 C.3       6 UNK         0.0367 
     41 CB         28.4337   29.1263    5.9005 C.3       6 UNK        -0.1929 
     42 C          29.1779   31.2322    4.7215 C.2       6 UNK         0.5070 
     43 O          29.8316   31.9454    5.4810 O.2       6 UNK        -0.5237 
     44 N          28.3428   31.7091    3.7887 N.am      7 UNK        -0.4739 
     45 CA         28.1259   33.1304    3.5186 C.3       7 UNK         0.0276 
     46 CB         26.8269   33.2839    2.7102 C.3       7 UNK        -0.1927 
     47 C          29.2963   33.8162    2.7861 C.2       7 UNK         0.5013 
     48 O          29.3471   35.0471    2.7927 O.2       7 UNK        -0.5193 
     49 N          30.1879   33.0381    2.1532 N.am      8 UNK        -0.4253 
     50 CA         31.2784   33.5460    1.3155 C.3       8 UNK         0.0242 
     51 CB         31.0008   33.1806   -0.1536 C.3       8 UNK        -0.2000 
     52 C          32.6518   33.0190    1.7518 C.2       8 UNK         0.4948 
     53 O          33.5786   33.8146    1.9086 O.2       8 UNK        -0.5275 
     54 N          32.7706   31.6961    1.9158 N.am      9 UNK        -0.4246 
     55 CA         34.0307   30.9915    2.1669 C.3       9 UNK         0.0261 
     56 CB         34.0672   29.7410    1.2705 C.3       9 UNK        -0.1959 
     57 C          34.2177   30.5879    3.6386 C.2       9 UNK         0.5033 
     58 O          35.2830   30.0727    3.9770 O.2       9 UNK        -0.5390 
     59 N          33.1830   30.7811    4.4718 N.am      10 UNK        -0.4215 
     60 CA         33.0806   30.3866    5.8874 C.3       10 UNK         0.0240 
     61 CB         34.1774   31.0546    6.7443 C.3       10 UNK        -0.1982 
     62 C          33.0019   28.8619    6.1271 C.2       10 UNK         0.4970 
     63 O          32.9922   28.4391    7.2839 O.2       10 UNK        -0.4916 
     64 N          32.9103   28.0676    5.0533 N.am      11 UNK        -0.4279 
     65 CA         32.6963   26.6178    5.0835 C.3       11 UNK         0.1003 
     66 C          31.2107   26.2951    5.3895 C.2       11 UNK         0.5709 
     67 N          30.8945   25.8859    6.6099 N.am      11 UNK        -0.7358 
     68 O          30.3491   26.3930    4.5204 O.2       11 UNK        -0.4999 
     69 C69        33.1562   25.9610    3.7585 C.3       12 UNK        -0.0954 
     70 S70        34.9754   25.8850    3.6105 S.3       12 UNK        -0.2268 
     71 C71        35.2841   25.8643    1.8069 C.3       12 UNK         0.0203 
     72 H72        25.7875   25.5985    3.8424 H         1 UNK         0.0888 
     73 H73        26.9398   25.2695    5.1368 H         1 UNK         0.0888 
     74 H74        27.2003   26.6386    4.0644 H         1 UNK         0.0888 
     75 H75        27.8807   23.3376    4.5880 H         1 UNK         0.3017 
     76 H76        29.0258   21.7703    3.6423 H         1 UNK         0.0873 
     77 H77        30.4344   23.8009    1.8336 H         1 UNK         0.0745 
     78 H78        30.6871   23.7447    3.5355 H         1 UNK         0.0745 
     79 H79        31.4979   21.5583    0.2009 H         1 UNK         0.0705 
     80 H80        33.1042   21.1961    0.7844 H         1 UNK         0.0705 
     81 H81        34.3850   23.2838    1.9400 H         1 UNK         0.1334 
     82 H82        33.6682   27.0114   -0.0596 H         1 UNK         0.1417 
     83 H83        31.1763   23.6351   -0.8813 H         1 UNK         0.1562 
     84 H84        31.3741   25.7663   -2.4679 H         1 UNK         0.0748 
     85 H85        31.9167   27.2281   -1.6758 H         1 UNK         0.0748 
     86 H86        31.2225   27.6818    0.7582 H         1 UNK         0.0940 
     87 H87        30.2219   26.5262    1.6023 H         1 UNK         0.0940 
     88 H88        29.2162   29.1198    0.3159 H         1 UNK         0.0703 
     89 H89        27.7460   26.9052    1.3147 H         1 UNK         0.3081 
     90 H90        25.3041   27.5380    2.4300 H         1 UNK         0.0719 
     91 H91        24.2484   29.3408    0.1834 H         1 UNK         0.0809 
     92 H92        23.2540   28.3292    1.2309 H         1 UNK         0.0809 
     93 H93        24.1522   29.6768    1.9076 H         1 UNK         0.0809 
     94 H94        25.9033   27.0448   -0.4143 H         1 UNK         0.2990 
     95 H95        24.1654   23.9746   -0.4818 H         1 UNK         0.0690 
     96 H96        25.8664   25.9299   -2.1358 H         1 UNK         0.0788 
     97 H97        24.1089   26.0197   -2.0217 H         1 UNK         0.0788 
     98 H98        24.8700   24.6113   -2.7311 H         1 UNK         0.0788 
     99 H99        26.9146   24.3123    0.2937 H         1 UNK         0.2993 
    100 H100       27.7893   21.0601   -0.7464 H         1 UNK         0.0949 
    101 H101       29.0416   23.5708   -1.9824 H         1 UNK         0.0767 
    102 H102       29.8064   21.9809   -1.8413 H         1 UNK         0.0767 
    103 H103       28.4114   22.1985   -2.8787 H         1 UNK         0.0767 
    104 H104       29.1662   23.3431    0.4778 H         1 UNK         0.3013 
    105 H105       28.3810   28.2780    3.5699 H         1 UNK         0.3121 
    106 H106       30.3744   29.4993    5.0729 H         1 UNK         0.0774 
    107 H107       28.6301   29.6060    6.8605 H         1 UNK         0.0815 
    108 H108       27.3775   29.2742    5.6719 H         1 UNK         0.0815 
    109 H109       28.6029   28.0581    6.0361 H         1 UNK         0.0815 
    110 H110       27.8529   31.0539    3.1912 H         1 UNK         0.2987 
    111 H111       27.9974   33.6454    4.4734 H         1 UNK         0.0949 
    112 H112       26.8916   32.7801    1.7446 H         1 UNK         0.0806 
    113 H113       25.9733   32.8695    3.2469 H         1 UNK         0.0806 
    114 H114       26.6070   34.3347    2.5162 H         1 UNK         0.0806 
    115 H115       30.0911   32.0316    2.2252 H         1 UNK         0.3010 
    116 H116       31.3310   34.6351    1.3784 H         1 UNK         0.0829 
    117 H117       31.8065   33.5265   -0.8027 H         1 UNK         0.0813 
    118 H118       30.9058   32.1031   -0.2945 H         1 UNK         0.0813 
    119 H119       30.0798   33.6448   -0.5069 H         1 UNK         0.0813 
    120 H120       31.9456   31.1044    1.8213 H         1 UNK         0.3038 
    121 H121       34.8762   31.6272    1.8953 H         1 UNK         0.0769 
    122 H122       35.0233   29.2254    1.3641 H         1 UNK         0.0811 
    123 H123       33.9450   30.0019    0.2192 H         1 UNK         0.0811 
    124 H124       33.2826   29.0306    1.5338 H         1 UNK         0.0811 
    125 H125       32.3591   31.2184    4.0824 H         1 UNK         0.3204 
    126 H126       32.1271   30.7846    6.2348 H         1 UNK         0.0748 
    127 H127       33.9882   30.9031    7.8077 H         1 UNK         0.0771 
    128 H128       35.1662   30.6467    6.5336 H         1 UNK         0.0771 
    129 H129       34.2136   32.1307    6.5742 H         1 UNK         0.0771 
    130 H130       32.9238   28.4924    4.1400 H         1 UNK         0.2980 
    131 H131       33.3019   26.1975    5.8894 H         1 UNK         0.0545 
    132 H132       29.9355   25.6620    6.8187 H         1 UNK         0.3459 
    133 H133       31.5936   25.8305    7.3341 H         1 UNK         0.3459 
    134 H134       32.7930   24.9340    3.6928 H         1 UNK         0.0616 
    135 H135       32.7300   26.4938    2.9068 H         1 UNK         0.0616 
    136 H136       36.2206   25.3384    1.6176 H         1 UNK         0.0634 
    137 H137       35.4421   26.8909    1.4763 H         1 UNK         0.0634 
@<TRIPOS>BOND
     1    1    2 1    
     2    1   72 1    
     3    1   73 1    
     4    1   74 1    
     5    2    3 2    
     6    2    4 am   BACKBONE|DICT|INTERRES
     7    4    5 1    
     8    4   75 1    
     9    5    6 1    
    10    5   35 1    
    11    5   76 1    
    12    6    7 1    
    13    6   77 1    
    14    6   78 1    
    15    7    8 1    
    16    8    9 1    
    17    8   79 1    
    18    8   80 1    
    19    9   10 ar   
    20    9   14 ar   
    21   10   11 ar   
    22   10   81 1    
    23   11   12 ar   
    24   11   71 1    
    25   12   13 ar   
    26   12   82 1    
    27   13   14 ar   
    28   13   15 1    
    29   14   83 1    
    30   15   16 1    
    31   15   84 1    
    32   15   85 1    
    33   16   17 1    
    34   17   18 1    
    35   17   86 1    
    36   17   87 1    
    37   18   19 1    
    38   18   37 1    
    39   18   88 1    
    40   19   20 am   BACKBONE|DICT|INTERRES
    41   19   89 1    
    42   20   21 2    
    43   20   22 1    
    44   22   23 1    
    45   22   24 1    
    46   22   90 1    
    47   23   91 1    
    48   23   92 1    
    49   23   93 1    
    50   24   25 am   BACKBONE|DICT|INTERRES
    51   24   94 1    
    52   25   26 2    
    53   25   27 1    
    54   27   28 1    
    55   27   29 1    
    56   27   95 1    
    57   28   96 1    
    58   28   97 1    
    59   28   98 1    
    60   29   30 am   BACKBONE|DICT|INTERRES
    61   29   99 1    
    62   30   31 2    
    63   30   32 1    
    64   32   33 1    
    65   32   34 1    
    66   32  100 1    
    67   33  101 1    
    68   33  102 1    
    69   33  103 1    
    70   34   35 am   BACKBONE|DICT|INTERRES
    71   34  104 1    
    72   35   36 2    
    73   37   38 2    
    74   37   39 am   BACKBONE|DICT|INTERRES
    75   39   40 1    
    76   39  105 1    
    77   40   41 1    
    78   40   42 1    
    79   40  106 1    
    80   41  107 1    
    81   41  108 1    
    82   41  109 1    
    83   42   43 2    
    84   42   44 am   BACKBONE|DICT|INTERRES
    85   44   45 1    
    86   44  110 1    
    87   45   46 1    
    88   45   47 1    
    89   45  111 1    
    90   46  112 1    
    91   46  113 1    
    92   46  114 1    
    93   47   48 2    
    94   47   49 am   BACKBONE|DICT|INTERRES
    95   49   50 1    
    96   49  115 1    
    97   50   51 1    
    98   50   52 1    
    99   50  116 1    
   100   51  117 1    
   101   51  118 1    
   102   51  119 1    
   103   52   53 2    
   104   52   54 am   BACKBONE|DICT|INTERRES
   105   54   55 1    
   106   54  120 1    
   107   55   56 1    
   108   55   57 1    
   109   55  121 1    
   110   56  122 1    
   111   56  123 1    
   112   56  124 1    
   113   57   58 2    
   114   57   59 am   BACKBONE|DICT|INTERRES
   115   59   60 1    
   116   59  125 1    
   117   60   61 1    
   118   60   62 1    
   119   60  126 1    
   120   61  127 1    
   121   61  128 1    
   122   61  129 1    
   123   62   63 2    
   124   62   64 am   BACKBONE|DICT|INTERRES
   125   64   65 1    
   126   64  130 1    
   127   65   66 1    
   128   65   69 1    
   129   65  131 1    
   130   66   67 am   BACKBONE|DICT|INTERRES
   131   66   68 2    
   132   67  132 1    
   133   67  133 1    
   134   69   70 1    
   135   69  134 1    
   136   69  135 1    
   137   70   71 1    
   138   71  136 1    
   139   71  137 1    
@<TRIPOS>SUBSTRUCTURE
     1 UNK         1 GROUP             0       ****    0 ROOT    
