@<TRIPOS>MOLECULE
3R136
137   139    1
SMALL
USER_CHARGES


@<TRIPOS>ATOM
      1 CA         26.2197   22.0852   -1.8385 C.3       0 UNK        -0.1979 
      2 C          27.6301   22.5405   -2.1823 C.2       0 UNK         0.4864 
      3 O          28.1173   22.2535   -3.2764 O.2       0 UNK        -0.5359 
      4 N          28.2847   23.2442   -1.2521 N.am      1 UNK        -0.4318 
      5 CA         29.6051   23.8503   -1.4211 C.3       1 UNK         0.0824 
      6 C6         30.3182   23.9894   -0.0551 C.3       12 UNK        -0.0944 
      7 S7         32.1135   24.2756   -0.1949 S.3       12 UNK        -0.2672 
      8 C8         32.7674   23.1302    1.0619 C.3       12 UNK         0.0333 
      9 C9         32.5046   23.6150    2.4834 C.ar      12 UNK        -0.0807 
     10 C10        33.4785   24.3455    3.1712 C.ar      12 UNK        -0.0894 
     11 C11        33.2747   24.7300    4.5011 C.ar      12 UNK        -0.0804 
     12 C12        32.0622   24.4181    5.1281 C.ar      12 UNK        -0.0824 
     13 C13        31.0717   23.7009    4.4472 C.ar      12 UNK        -0.0762 
     14 C14        31.3111   23.2872    3.1335 C.ar      12 UNK        -0.0782 
     15 C15        29.7800   23.3006    5.1550 C.3       12 UNK         0.0230 
     16 S16        28.2734   23.6620    4.1864 S.3       12 UNK        -0.2608 
     17 C17        28.0627   25.4512    4.4698 C.3       12 UNK        -0.0989 
     18 CA         27.6186   26.2289    3.2004 C.3       5 UNK         0.0716 
     19 N          26.3446   25.7423    2.6633 N.am      5 UNK        -0.4135 
     20 C          26.1948   25.1870    1.4564 C.2       4 UNK         0.5031 
     21 O          27.1260   24.9203    0.6938 O.2       4 UNK        -0.5229 
     22 CA         24.7595   24.9550    0.9528 C.3       4 UNK         0.0329 
     23 CB         23.6861   24.8646    2.0627 C.3       4 UNK        -0.2001 
     24 N          24.4500   25.9857   -0.0450 N.am      4 UNK        -0.4303 
     25 C          24.4109   27.3087    0.1774 C.2       3 UNK         0.5044 
     26 O          24.3613   27.8159    1.2986 O.2       3 UNK        -0.5152 
     27 CA         24.5898   28.1980   -1.0677 C.3       3 UNK         0.0319 
     28 CB         24.5043   29.7059   -0.7503 C.3       3 UNK        -0.2001 
     29 N          25.8493   27.8860   -1.7629 N.am      3 UNK        -0.4354 
     30 C          27.0848   27.8825   -1.2345 C.2       2 UNK         0.4964 
     31 O          27.3568   28.2226   -0.0787 O.2       2 UNK        -0.5047 
     32 CA         28.2068   27.3635   -2.1364 C.3       2 UNK         0.0288 
     33 CB         29.3745   28.3670   -2.2345 C.3       2 UNK        -0.2113 
     34 N          28.6319   26.0862   -1.5735 N.am      2 UNK        -0.4145 
     35 C          29.4492   25.1965   -2.1520 C.2       1 UNK         0.5006 
     36 O          30.0139   25.3749   -3.2329 O.2       1 UNK        -0.5103 
     37 C          27.5602   27.7463    3.4917 C.2       5 UNK         0.5055 
     38 O          28.5176   28.2643    4.0643 O.2       5 UNK        -0.5220 
     39 N          26.4652   28.4474    3.1484 N.am      6 UNK        -0.4450 
     40 CA         26.2303   29.8353    3.5669 C.3       6 UNK         0.0367 
     41 CB         24.7597   30.2205    3.3423 C.3       6 UNK        -0.1929 
     42 C          27.1623   30.8550    2.8960 C.2       6 UNK         0.5070 
     43 O          27.5885   31.7993    3.5607 O.2       6 UNK        -0.5237 
     44 N          27.4794   30.6494    1.6109 N.am      7 UNK        -0.4739 
     45 CA         28.4415   31.4778    0.8767 C.3       7 UNK         0.0276 
     46 CB         28.0018   31.6134   -0.5889 C.3       7 UNK        -0.1927 
     47 C          29.8690   30.9181    0.9883 C.2       7 UNK         0.5013 
     48 O          30.8265   31.6787    0.8463 O.2       7 UNK        -0.5193 
     49 N          29.9924   29.6140    1.2766 N.am      8 UNK        -0.4253 
     50 CA         31.2631   28.9285    1.5324 C.3       8 UNK         0.0242 
     51 CB         31.0597   27.4119    1.3932 C.3       8 UNK        -0.2000 
     52 C          31.8673   29.2465    2.9132 C.2       8 UNK         0.4948 
     53 O          33.0338   28.9252    3.1284 O.2       8 UNK        -0.5275 
     54 N          31.0727   29.8577    3.8071 N.am      9 UNK        -0.4246 
     55 CA         31.3217   30.1176    5.2312 C.3       9 UNK         0.0261 
     56 CB         30.1263   30.8975    5.8040 C.3       9 UNK        -0.1959 
     57 C          32.6384   30.8243    5.6037 C.2       9 UNK         0.5033 
     58 O          33.0335   30.7602    6.7699 O.2       9 UNK        -0.5390 
     59 N          33.3249   31.4501    4.6387 N.am      10 UNK        -0.4215 
     60 CA         34.6943   31.9598    4.7668 C.3       10 UNK         0.0240 
     61 CB         34.9451   32.9961    3.6552 C.3       10 UNK        -0.1982 
     62 C          35.7276   30.8091    4.7572 C.2       10 UNK         0.4970 
     63 O          36.6274   30.7881    3.9152 O.2       10 UNK        -0.4916 
     64 N          35.5573   29.8609    5.6850 N.am      11 UNK        -0.4279 
     65 CA         36.3439   28.6276    5.8252 C.3       11 UNK         0.1003 
     66 C          37.7753   28.8325    6.4018 C.2       11 UNK         0.5709 
     67 N          38.1240   30.0001    6.9301 N.am      11 UNK        -0.7358 
     68 O          38.5896   27.9131    6.3610 O.2       11 UNK        -0.4999 
     69 C69        35.5622   27.5587    6.6372 C.3       12 UNK        -0.0954 
     70 S70        33.9840   27.0741    5.8518 S.3       12 UNK        -0.2268 
     71 C71        34.4013   25.3988    5.2811 C.3       12 UNK         0.0203 
     72 H72        25.9969   22.2237   -0.7810 H         1 UNK         0.0888 
     73 H73        25.4905   22.6482   -2.4201 H         1 UNK         0.0888 
     74 H74        26.0987   21.0274   -2.0703 H         1 UNK         0.0888 
     75 H75        27.7975   23.5258   -0.4051 H         1 UNK         0.3017 
     76 H76        30.2069   23.1922   -2.0522 H         1 UNK         0.0873 
     77 H77        29.8749   24.7703    0.5649 H         1 UNK         0.0745 
     78 H78        30.1682   23.0600    0.4923 H         1 UNK         0.0745 
     79 H79        32.3414   22.1366    0.9142 H         1 UNK         0.0705 
     80 H80        33.8411   23.0201    0.9024 H         1 UNK         0.0705 
     81 H81        34.4138   24.5795    2.6810 H         1 UNK         0.1334 
     82 H82        31.9072   24.7085    6.1584 H         1 UNK         0.1417 
     83 H83        30.5641   22.6943    2.6265 H         1 UNK         0.1562 
     84 H84        29.7013   23.7823    6.1310 H         1 UNK         0.0748 
     85 H85        29.8157   22.2276    5.3475 H         1 UNK         0.0748 
     86 H86        29.0098   25.8486    4.8415 H         1 UNK         0.0940 
     87 H87        27.3404   25.5863    5.2769 H         1 UNK         0.0940 
     88 H88        28.3999   26.1064    2.4497 H         1 UNK         0.0703 
     89 H89        25.5204   25.9346    3.2137 H         1 UNK         0.3081 
     90 H90        24.7655   23.9999    0.4267 H         1 UNK         0.0719 
     91 H91        23.5773   25.7852    2.6352 H         1 UNK         0.0809 
     92 H92        22.7102   24.6316    1.6368 H         1 UNK         0.0809 
     93 H93        23.9242   24.0669    2.7677 H         1 UNK         0.0809 
     94 H94        24.5134   25.6816   -1.0063 H         1 UNK         0.2990 
     95 H95        23.7741   27.9540   -1.7500 H         1 UNK         0.0690 
     96 H96        24.5832   30.3059   -1.6567 H         1 UNK         0.0788 
     97 H97        25.2937   30.0251   -0.0714 H         1 UNK         0.0788 
     98 H98        23.5519   29.9516   -0.2792 H         1 UNK         0.0788 
     99 H99        25.7446   27.5805   -2.7208 H         1 UNK         0.2993 
    100 H100       27.8156   27.1837   -3.1398 H         1 UNK         0.0949 
    101 H101       30.1756   27.9964   -2.8731 H         1 UNK         0.0767 
    102 H102       29.0394   29.3096   -2.6673 H         1 UNK         0.0767 
    103 H103       29.8059   28.5876   -1.2601 H         1 UNK         0.0767 
    104 H104       28.1794   25.8318   -0.6977 H         1 UNK         0.3013 
    105 H105       25.7427   28.0256    2.5686 H         1 UNK         0.3121 
    106 H106       26.4202   29.8853    4.6416 H         1 UNK         0.0774 
    107 H107       24.5066   30.2552    2.2829 H         1 UNK         0.0815 
    108 H108       24.5504   31.2079    3.7559 H         1 UNK         0.0815 
    109 H109       24.0837   29.5156    3.8261 H         1 UNK         0.0815 
    110 H110       27.1258   29.8239    1.1351 H         1 UNK         0.2987 
    111 H111       28.4607   32.4839    1.3020 H         1 UNK         0.0949 
    112 H112       27.0269   32.0951   -0.6644 H         1 UNK         0.0806 
    113 H113       27.9336   30.6487   -1.0850 H         1 UNK         0.0806 
    114 H114       28.7088   32.2219   -1.1543 H         1 UNK         0.0806 
    115 H115       29.1485   29.0616    1.3473 H         1 UNK         0.3010 
    116 H116       31.9817   29.2483    0.7748 H         1 UNK         0.0829 
    117 H117       30.5948   27.1477    0.4445 H         1 UNK         0.0813 
    118 H118       30.4463   27.0138    2.1999 H         1 UNK         0.0813 
    119 H119       32.0165   26.8899    1.4406 H         1 UNK         0.0813 
    120 H120       30.1184   30.0129    3.5129 H         1 UNK         0.3038 
    121 H121       31.3517   29.1404    5.7170 H         1 UNK         0.0769 
    122 H122       30.2541   31.0908    6.8701 H         1 UNK         0.0811 
    123 H123       29.1959   30.3410    5.6902 H         1 UNK         0.0811 
    124 H124       30.0013   31.8614    5.3090 H         1 UNK         0.0811 
    125 H125       32.9530   31.3950    3.7013 H         1 UNK         0.3204 
    126 H126       34.7894   32.4719    5.7267 H         1 UNK         0.0748 
    127 H127       35.9431   33.4281    3.7409 H         1 UNK         0.0771 
    128 H128       34.8651   32.5509    2.6625 H         1 UNK         0.0771 
    129 H129       34.2323   33.8190    3.7122 H         1 UNK         0.0771 
    130 H130       34.7701   29.9628    6.3175 H         1 UNK         0.2980 
    131 H131       36.4906   28.2283    4.8198 H         1 UNK         0.0545 
    132 H132       39.0558   30.1191    7.2951 H         1 UNK         0.3459 
    133 H133       37.4645   30.7603    6.9676 H         1 UNK         0.3459 
    134 H134       35.3398   27.9346    7.6374 H         1 UNK         0.0616 
    135 H135       36.1705   26.6642    6.7838 H         1 UNK         0.0616 
    136 H136       34.6462   24.7796    6.1452 H         1 UNK         0.0634 
    137 H137       35.3066   25.4542    4.6743 H         1 UNK         0.0634 
@<TRIPOS>BOND
     1    1    2 1    
     2    1   72 1    
     3    1   73 1    
     4    1   74 1    
     5    2    3 2    
     6    2    4 am   BACKBONE|DICT|INTERRES
     7    4    5 1    
     8    4   75 1    
     9    5    6 1    
    10    5   35 1    
    11    5   76 1    
    12    6    7 1    
    13    6   77 1    
    14    6   78 1    
    15    7    8 1    
    16    8    9 1    
    17    8   79 1    
    18    8   80 1    
    19    9   10 ar   
    20    9   14 ar   
    21   10   11 ar   
    22   10   81 1    
    23   11   12 ar   
    24   11   71 1    
    25   12   13 ar   
    26   12   82 1    
    27   13   14 ar   
    28   13   15 1    
    29   14   83 1    
    30   15   16 1    
    31   15   84 1    
    32   15   85 1    
    33   16   17 1    
    34   17   18 1    
    35   17   86 1    
    36   17   87 1    
    37   18   19 1    
    38   18   37 1    
    39   18   88 1    
    40   19   20 am   BACKBONE|DICT|INTERRES
    41   19   89 1    
    42   20   21 2    
    43   20   22 1    
    44   22   23 1    
    45   22   24 1    
    46   22   90 1    
    47   23   91 1    
    48   23   92 1    
    49   23   93 1    
    50   24   25 am   BACKBONE|DICT|INTERRES
    51   24   94 1    
    52   25   26 2    
    53   25   27 1    
    54   27   28 1    
    55   27   29 1    
    56   27   95 1    
    57   28   96 1    
    58   28   97 1    
    59   28   98 1    
    60   29   30 am   BACKBONE|DICT|INTERRES
    61   29   99 1    
    62   30   31 2    
    63   30   32 1    
    64   32   33 1    
    65   32   34 1    
    66   32  100 1    
    67   33  101 1    
    68   33  102 1    
    69   33  103 1    
    70   34   35 am   BACKBONE|DICT|INTERRES
    71   34  104 1    
    72   35   36 2    
    73   37   38 2    
    74   37   39 am   BACKBONE|DICT|INTERRES
    75   39   40 1    
    76   39  105 1    
    77   40   41 1    
    78   40   42 1    
    79   40  106 1    
    80   41  107 1    
    81   41  108 1    
    82   41  109 1    
    83   42   43 2    
    84   42   44 am   BACKBONE|DICT|INTERRES
    85   44   45 1    
    86   44  110 1    
    87   45   46 1    
    88   45   47 1    
    89   45  111 1    
    90   46  112 1    
    91   46  113 1    
    92   46  114 1    
    93   47   48 2    
    94   47   49 am   BACKBONE|DICT|INTERRES
    95   49   50 1    
    96   49  115 1    
    97   50   51 1    
    98   50   52 1    
    99   50  116 1    
   100   51  117 1    
   101   51  118 1    
   102   51  119 1    
   103   52   53 2    
   104   52   54 am   BACKBONE|DICT|INTERRES
   105   54   55 1    
   106   54  120 1    
   107   55   56 1    
   108   55   57 1    
   109   55  121 1    
   110   56  122 1    
   111   56  123 1    
   112   56  124 1    
   113   57   58 2    
   114   57   59 am   BACKBONE|DICT|INTERRES
   115   59   60 1    
   116   59  125 1    
   117   60   61 1    
   118   60   62 1    
   119   60  126 1    
   120   61  127 1    
   121   61  128 1    
   122   61  129 1    
   123   62   63 2    
   124   62   64 am   BACKBONE|DICT|INTERRES
   125   64   65 1    
   126   64  130 1    
   127   65   66 1    
   128   65   69 1    
   129   65  131 1    
   130   66   67 am   BACKBONE|DICT|INTERRES
   131   66   68 2    
   132   67  132 1    
   133   67  133 1    
   134   69   70 1    
   135   69  134 1    
   136   69  135 1    
   137   70   71 1    
   138   71  136 1    
   139   71  137 1    
@<TRIPOS>SUBSTRUCTURE
     1 UNK         1 GROUP             0       ****    0 ROOT    
