@<TRIPOS>MOLECULE
3R136
137   139    1
SMALL
USER_CHARGES


@<TRIPOS>ATOM
      1 CA         28.9219   29.2078   -0.9848 C.3       0 UNK        -0.1979 
      2 C          28.9585   27.7713   -0.4878 C.2       0 UNK         0.4864 
      3 O          28.3113   27.4557    0.5093 O.2       0 UNK        -0.5359 
      4 N          29.7225   26.9000   -1.1591 N.am      1 UNK        -0.4318 
      5 CA         29.8252   25.4690   -0.8508 C.3       1 UNK         0.0824 
      6 C6         31.0102   24.8292   -1.6225 C.3       12 UNK        -0.0944 
      7 S7         31.2054   23.0268   -1.4059 S.3       12 UNK        -0.2672 
      8 C8         32.4637   22.9282   -0.0924 C.3       12 UNK         0.0333 
      9 C9         31.9125   23.1703    1.3101 C.ar      12 UNK        -0.0807 
     10 C10        32.6183   23.9874    2.1994 C.ar      12 UNK        -0.0894 
     11 C11        32.1924   24.1344    3.5226 C.ar      12 UNK        -0.0804 
     12 C12        31.0421   23.4670    3.9525 C.ar      12 UNK        -0.0824 
     13 C13        30.3186   22.6538    3.0743 C.ar      12 UNK        -0.0762 
     14 C14        30.7585   22.5117    1.7544 C.ar      12 UNK        -0.0782 
     15 C15        29.1043   21.8747    3.5697 C.3       12 UNK         0.0230 
     16 S16        27.5215   22.6894    3.1763 S.3       12 UNK        -0.2608 
     17 C17        27.6369   24.2156    4.1665 C.3       12 UNK        -0.0989 
     18 CA         27.8935   25.4432    3.2525 C.3       5 UNK         0.0716 
     19 N          26.7125   25.8399    2.4722 N.am      5 UNK        -0.4135 
     20 C          25.5969   26.4127    2.9508 C.2       4 UNK         0.5031 
     21 O          25.3684   26.5984    4.1470 O.2       4 UNK        -0.5229 
     22 CA         24.5558   26.8797    1.9218 C.3       4 UNK         0.0329 
     23 CB         24.9135   28.2722    1.3764 C.3       4 UNK        -0.2001 
     24 N          24.3762   25.9490    0.8081 N.am      4 UNK        -0.4303 
     25 C          23.7768   24.7561    0.8939 C.2       3 UNK         0.5044 
     26 O          23.3419   24.2857    1.9457 O.2       3 UNK        -0.5152 
     27 CA         23.5949   23.9562   -0.4105 C.3       3 UNK         0.0319 
     28 CB         22.3885   24.4815   -1.2136 C.3       3 UNK        -0.2001 
     29 N          24.7910   23.8448   -1.2579 N.am      3 UNK        -0.4354 
     30 C          25.4658   24.8064   -1.9032 C.2       2 UNK         0.4964 
     31 O          25.1885   26.0072   -1.8598 O.2       2 UNK        -0.5047 
     32 CA         26.6631   24.3415   -2.7463 C.3       2 UNK         0.0288 
     33 CB         26.4420   24.6593   -4.2347 C.3       2 UNK        -0.2113 
     34 N          27.9112   24.9584   -2.2995 N.am      2 UNK        -0.4145 
     35 C          28.4829   24.7489   -1.1042 C.2       1 UNK         0.5006 
     36 O          27.9951   24.0384   -0.2242 O.2       1 UNK        -0.5103 
     37 C          28.4965   26.6555    3.9960 C.2       5 UNK         0.5055 
     38 O          28.6804   26.6236    5.2145 O.2       5 UNK        -0.5220 
     39 N          28.7662   27.7165    3.2285 N.am      6 UNK        -0.4450 
     40 CA         29.3343   28.9834    3.6791 C.3       6 UNK         0.0367 
     41 CB         28.2002   30.0081    3.8720 C.3       6 UNK        -0.1929 
     42 C          30.4040   29.4536    2.6806 C.2       6 UNK         0.5070 
     43 O          30.4613   30.6410    2.3511 O.2       6 UNK        -0.5237 
     44 N          31.2189   28.5043    2.2010 N.am      7 UNK        -0.4739 
     45 CA         32.2764   28.6924    1.2057 C.3       7 UNK         0.0276 
     46 CB         32.9582   27.3401    0.9494 C.3       7 UNK        -0.1927 
     47 C          33.3176   29.7408    1.6296 C.2       7 UNK         0.5013 
     48 O          33.7333   29.7461    2.7884 O.2       7 UNK        -0.5193 
     49 N          33.7166   30.5918    0.6726 N.am      8 UNK        -0.4253 
     50 CA         34.6396   31.7248    0.8315 C.3       8 UNK         0.0242 
     51 CB         36.0654   31.2346    1.1681 C.3       8 UNK        -0.2000 
     52 C          34.1206   32.7979    1.8134 C.2       8 UNK         0.4948 
     53 O          34.9178   33.3965    2.5373 O.2       8 UNK        -0.5275 
     54 N          32.7966   33.0282    1.7914 N.am      9 UNK        -0.4246 
     55 CA         32.0303   33.9483    2.6414 C.3       9 UNK         0.0261 
     56 CB         32.4431   35.4167    2.3972 C.3       9 UNK        -0.1959 
     57 C          32.0928   33.5333    4.1231 C.2       9 UNK         0.5033 
     58 O          32.6375   34.2694    4.9487 O.2       9 UNK        -0.5390 
     59 N          31.5161   32.3547    4.3986 N.am      10 UNK        -0.4215 
     60 CA         31.4996   31.5937    5.6538 C.3       10 UNK         0.0240 
     61 CB         31.1399   32.4464    6.8876 C.3       10 UNK        -0.1982 
     62 C          32.8068   30.8099    5.8469 C.2       10 UNK         0.4970 
     63 O          33.8919   31.3925    5.8035 O.2       10 UNK        -0.4916 
     64 N          32.6621   29.4959    6.0596 N.am      11 UNK        -0.4279 
     65 CA         33.7547   28.5272    6.2259 C.3       11 UNK         0.1003 
     66 C          34.6670   28.8415    7.4440 C.2       11 UNK         0.5709 
     67 N          35.9689   28.6220    7.3188 N.am      11 UNK        -0.7358 
     68 O          34.1989   29.2336    8.5119 O.2       11 UNK        -0.4999 
     69 C69        33.2032   27.0812    6.3298 C.3       12 UNK        -0.0954 
     70 S70        32.2463   26.5614    4.8634 S.3       12 UNK        -0.2268 
     71 C71        33.0102   24.9506    4.5129 C.3       12 UNK         0.0203 
     72 H72        29.2224   29.8888   -0.1891 H         1 UNK         0.0888 
     73 H73        29.5856   29.3637   -1.8348 H         1 UNK         0.0888 
     74 H74        27.9092   29.4690   -1.2904 H         1 UNK         0.0888 
     75 H75        30.2422   27.2179   -1.9647 H         1 UNK         0.3017 
     76 H76        30.0370   25.3758    0.2170 H         1 UNK         0.0873 
     77 H77        31.9435   25.3212   -1.3469 H         1 UNK         0.0745 
     78 H78        30.8950   25.0075   -2.6931 H         1 UNK         0.0745 
     79 H79        33.2768   23.6189   -0.3213 H         1 UNK         0.0705 
     80 H80        32.9008   21.9292   -0.1142 H         1 UNK         0.0705 
     81 H81        33.5254   24.4775    1.8737 H         1 UNK         0.1334 
     82 H82        30.7273   23.5650    4.9825 H         1 UNK         0.1417 
     83 H83        30.2142   21.8655    1.0790 H         1 UNK         0.1562 
     84 H84        29.1676   21.7127    4.6470 H         1 UNK         0.0748 
     85 H85        29.1038   20.8812    3.1190 H         1 UNK         0.0748 
     86 H86        28.4277   24.0930    4.9068 H         1 UNK         0.0940 
     87 H87        26.7183   24.3393    4.7417 H         1 UNK         0.0940 
     88 H88        28.6538   25.1596    2.5220 H         1 UNK         0.0703 
     89 H89        26.8169   25.7648    1.4691 H         1 UNK         0.3081 
     90 H90        23.5994   26.9628    2.4429 H         1 UNK         0.0719 
     91 H91        25.8202   28.2511    0.7721 H         1 UNK         0.0809 
     92 H92        24.1104   28.6718    0.7569 H         1 UNK         0.0809 
     93 H93        25.0793   28.9810    2.1890 H         1 UNK         0.0809 
     94 H94        24.7045   26.2392   -0.1110 H         1 UNK         0.2990 
     95 H95        23.3600   22.9334   -0.1109 H         1 UNK         0.0690 
     96 H96        22.1926   23.8592   -2.0868 H         1 UNK         0.0788 
     97 H97        22.5401   25.5047   -1.5589 H         1 UNK         0.0788 
     98 H98        21.4840   24.4773   -0.6038 H         1 UNK         0.0788 
     99 H99        25.1546   22.9044   -1.3332 H         1 UNK         0.2993 
    100 H100       26.7738   23.2596   -2.6439 H         1 UNK         0.0949 
    101 H101       27.2590   24.2787   -4.8482 H         1 UNK         0.0767 
    102 H102       25.5226   24.1987   -4.5989 H         1 UNK         0.0767 
    103 H103       26.3603   25.7328   -4.4113 H         1 UNK         0.0767 
    104 H104       28.3573   25.5938   -2.9436 H         1 UNK         0.3013 
    105 H105       28.5798   27.6461    2.2249 H         1 UNK         0.3121 
    106 H106       29.8415   28.8371    4.6339 H         1 UNK         0.0774 
    107 H107       28.5817   30.9622    4.2369 H         1 UNK         0.0815 
    108 H108       27.6754   30.2021    2.9357 H         1 UNK         0.0815 
    109 H109       27.4678   29.6539    4.5976 H         1 UNK         0.0815 
    110 H110       31.1322   27.5753    2.5878 H         1 UNK         0.2987 
    111 H111       31.7958   29.0226    0.2831 H         1 UNK         0.0949 
    112 H112       32.2354   26.5778    0.6634 H         1 UNK         0.0806 
    113 H113       33.6909   27.4150    0.1450 H         1 UNK         0.0806 
    114 H114       33.4832   26.9857    1.8376 H         1 UNK         0.0806 
    115 H115       33.3235   30.4859   -0.2528 H         1 UNK         0.3010 
    116 H116       34.6882   32.2147   -0.1423 H         1 UNK         0.0829 
    117 H117       36.4076   30.4855    0.4542 H         1 UNK         0.0813 
    118 H118       36.7793   32.0587    1.1382 H         1 UNK         0.0813 
    119 H119       36.1186   30.7974    2.1657 H         1 UNK         0.0813 
    120 H120       32.2391   32.4497    1.1779 H         1 UNK         0.3038 
    121 H121       30.9871   33.8530    2.3348 H         1 UNK         0.0769 
    122 H122       31.8052   36.0964    2.9634 H         1 UNK         0.0811 
    123 H123       32.3504   35.6852    1.3451 H         1 UNK         0.0811 
    124 H124       33.4713   35.6112    2.7036 H         1 UNK         0.0811 
    125 H125       31.1415   31.8419    3.6013 H         1 UNK         0.3204 
    126 H126       30.6907   30.8743    5.5331 H         1 UNK         0.0748 
    127 H127       30.9582   31.8103    7.7547 H         1 UNK         0.0771 
    128 H128       31.9426   33.1320    7.1603 H         1 UNK         0.0771 
    129 H129       30.2367   33.0326    6.7183 H         1 UNK         0.0771 
    130 H130       31.7359   29.1035    6.1190 H         1 UNK         0.2980 
    131 H131       34.3676   28.5918    5.3245 H         1 UNK         0.0545 
    132 H132       36.5738   28.8037    8.1043 H         1 UNK         0.3459 
    133 H133       36.3606   28.2898    6.4513 H         1 UNK         0.3459 
    134 H134       34.0273   26.3807    6.4779 H         1 UNK         0.0616 
    135 H135       32.5597   26.9784    7.2056 H         1 UNK         0.0616 
    136 H136       34.0236   25.1104    4.1412 H         1 UNK         0.0634 
    137 H137       33.1066   24.3863    5.4419 H         1 UNK         0.0634 
@<TRIPOS>BOND
     1    1    2 1    
     2    1   72 1    
     3    1   73 1    
     4    1   74 1    
     5    2    3 2    
     6    2    4 am   BACKBONE|DICT|INTERRES
     7    4    5 1    
     8    4   75 1    
     9    5    6 1    
    10    5   35 1    
    11    5   76 1    
    12    6    7 1    
    13    6   77 1    
    14    6   78 1    
    15    7    8 1    
    16    8    9 1    
    17    8   79 1    
    18    8   80 1    
    19    9   10 ar   
    20    9   14 ar   
    21   10   11 ar   
    22   10   81 1    
    23   11   12 ar   
    24   11   71 1    
    25   12   13 ar   
    26   12   82 1    
    27   13   14 ar   
    28   13   15 1    
    29   14   83 1    
    30   15   16 1    
    31   15   84 1    
    32   15   85 1    
    33   16   17 1    
    34   17   18 1    
    35   17   86 1    
    36   17   87 1    
    37   18   19 1    
    38   18   37 1    
    39   18   88 1    
    40   19   20 am   BACKBONE|DICT|INTERRES
    41   19   89 1    
    42   20   21 2    
    43   20   22 1    
    44   22   23 1    
    45   22   24 1    
    46   22   90 1    
    47   23   91 1    
    48   23   92 1    
    49   23   93 1    
    50   24   25 am   BACKBONE|DICT|INTERRES
    51   24   94 1    
    52   25   26 2    
    53   25   27 1    
    54   27   28 1    
    55   27   29 1    
    56   27   95 1    
    57   28   96 1    
    58   28   97 1    
    59   28   98 1    
    60   29   30 am   BACKBONE|DICT|INTERRES
    61   29   99 1    
    62   30   31 2    
    63   30   32 1    
    64   32   33 1    
    65   32   34 1    
    66   32  100 1    
    67   33  101 1    
    68   33  102 1    
    69   33  103 1    
    70   34   35 am   BACKBONE|DICT|INTERRES
    71   34  104 1    
    72   35   36 2    
    73   37   38 2    
    74   37   39 am   BACKBONE|DICT|INTERRES
    75   39   40 1    
    76   39  105 1    
    77   40   41 1    
    78   40   42 1    
    79   40  106 1    
    80   41  107 1    
    81   41  108 1    
    82   41  109 1    
    83   42   43 2    
    84   42   44 am   BACKBONE|DICT|INTERRES
    85   44   45 1    
    86   44  110 1    
    87   45   46 1    
    88   45   47 1    
    89   45  111 1    
    90   46  112 1    
    91   46  113 1    
    92   46  114 1    
    93   47   48 2    
    94   47   49 am   BACKBONE|DICT|INTERRES
    95   49   50 1    
    96   49  115 1    
    97   50   51 1    
    98   50   52 1    
    99   50  116 1    
   100   51  117 1    
   101   51  118 1    
   102   51  119 1    
   103   52   53 2    
   104   52   54 am   BACKBONE|DICT|INTERRES
   105   54   55 1    
   106   54  120 1    
   107   55   56 1    
   108   55   57 1    
   109   55  121 1    
   110   56  122 1    
   111   56  123 1    
   112   56  124 1    
   113   57   58 2    
   114   57   59 am   BACKBONE|DICT|INTERRES
   115   59   60 1    
   116   59  125 1    
   117   60   61 1    
   118   60   62 1    
   119   60  126 1    
   120   61  127 1    
   121   61  128 1    
   122   61  129 1    
   123   62   63 2    
   124   62   64 am   BACKBONE|DICT|INTERRES
   125   64   65 1    
   126   64  130 1    
   127   65   66 1    
   128   65   69 1    
   129   65  131 1    
   130   66   67 am   BACKBONE|DICT|INTERRES
   131   66   68 2    
   132   67  132 1    
   133   67  133 1    
   134   69   70 1    
   135   69  134 1    
   136   69  135 1    
   137   70   71 1    
   138   71  136 1    
   139   71  137 1    
@<TRIPOS>SUBSTRUCTURE
     1 UNK         1 GROUP             0       ****    0 ROOT    
