@<TRIPOS>MOLECULE
3R136
137   139    1
SMALL
USER_CHARGES


@<TRIPOS>ATOM
      1 CA         32.0510   22.8248   -1.7120 C.3       0 UNK        -0.1979 
      2 C          31.1240   23.8952   -1.1561 C.2       0 UNK         0.4864 
      3 O          31.0916   25.0076   -1.6825 O.2       0 UNK        -0.5359 
      4 N          30.3710   23.5665   -0.0970 N.am      1 UNK        -0.4318 
      5 CA         29.4565   24.4804    0.6000 C.3       1 UNK         0.0824 
      6 C6         28.9947   23.9147    1.9653 C.3       12 UNK        -0.0944 
      7 S7         30.3830   23.5952    3.1008 S.3       12 UNK        -0.2672 
      8 C8         29.5471   23.6042    4.7201 C.3       12 UNK         0.0333 
      9 C9         30.1669   24.6432    5.6403 C.ar      12 UNK        -0.0807 
     10 C10        31.2799   24.3142    6.4174 C.ar      12 UNK        -0.0894 
     11 C11        31.8791   25.2759    7.2345 C.ar      12 UNK        -0.0804 
     12 C12        31.3493   26.5689    7.2783 C.ar      12 UNK        -0.0824 
     13 C13        30.2306   26.9150    6.5139 C.ar      12 UNK        -0.0762 
     14 C14        29.6376   25.9353    5.7053 C.ar      12 UNK        -0.0782 
     15 C15        29.7069   28.3500    6.6194 C.3       12 UNK         0.0230 
     16 S16        28.3423   28.8054    5.4916 S.3       12 UNK        -0.2608 
     17 C17        29.2110   29.1008    3.9141 C.3       12 UNK        -0.0989 
     18 CA         28.8470   28.0968    2.7895 C.3       5 UNK         0.0716 
     19 N          27.4253   28.1087    2.4539 N.am      5 UNK        -0.4135 
     20 C          26.5161   27.1952    2.8038 C.2       4 UNK         0.5031 
     21 O          26.7229   26.2893    3.6124 O.2       4 UNK        -0.5229 
     22 CA         25.1480   27.2635    2.1081 C.3       4 UNK         0.0329 
     23 CB         24.9668   28.4606    1.1498 C.3       4 UNK        -0.2001 
     24 N          24.9863   26.0197    1.3624 N.am      4 UNK        -0.4303 
     25 C          23.8895   25.2537    1.3366 C.2       3 UNK         0.5044 
     26 O          22.8373   25.5583    1.9016 O.2       3 UNK        -0.5152 
     27 CA         23.9808   23.9032    0.5892 C.3       3 UNK         0.0319 
     28 CB         22.6598   23.5275   -0.1169 C.3       3 UNK        -0.2001 
     29 N          25.1267   23.7865   -0.3261 N.am      3 UNK        -0.4354 
     30 C          25.3539   24.4887   -1.4481 C.2       2 UNK         0.4964 
     31 O          24.5703   25.3195   -1.9102 O.2       2 UNK        -0.5047 
     32 CA         26.7084   24.2313   -2.1460 C.3       2 UNK         0.0288 
     33 CB         27.0642   25.3270   -3.1740 C.3       2 UNK        -0.2113 
     34 N          27.8288   24.0364   -1.2101 N.am      2 UNK        -0.4145 
     35 C          28.2275   24.8811   -0.2431 C.2       1 UNK         0.5006 
     36 O          27.6460   25.9319    0.0237 O.2       1 UNK        -0.5103 
     37 C          29.5777   28.4493    1.4827 C.2       5 UNK         0.5055 
     38 O          29.0019   29.1442    0.6371 O.2       5 UNK        -0.5220 
     39 N          30.8303   28.0006    1.3342 N.am      6 UNK        -0.4450 
     40 CA         31.6587   28.2715    0.1568 C.3       6 UNK         0.0367 
     41 CB         32.9253   27.4056    0.1970 C.3       6 UNK        -0.1929 
     42 C          32.0070   29.7647    0.1007 C.2       6 UNK         0.5070 
     43 O          32.4610   30.3180    1.1052 O.2       6 UNK        -0.5237 
     44 N          31.6959   30.4135   -1.0297 N.am      7 UNK        -0.4739 
     45 CA         31.7534   31.8711   -1.2356 C.3       7 UNK         0.0276 
     46 CB         33.2205   32.3494   -1.2825 C.3       7 UNK        -0.1927 
     47 C          30.9080   32.6743   -0.2177 C.2       7 UNK         0.5013 
     48 O          31.2003   33.8457    0.0265 O.2       7 UNK        -0.5193 
     49 N          29.8955   32.0164    0.3719 N.am      8 UNK        -0.4253 
     50 CA         29.0391   32.4766    1.4672 C.3       8 UNK         0.0242 
     51 CB         28.1544   33.6585    1.0143 C.3       8 UNK        -0.2000 
     52 C          29.7966   32.7625    2.7830 C.2       8 UNK         0.4948 
     53 O          29.3068   33.5656    3.5799 O.2       8 UNK        -0.5275 
     54 N          30.9492   32.1090    3.0175 N.am      9 UNK        -0.4246 
     55 CA         31.7564   32.3345    4.2237 C.3       9 UNK         0.0261 
     56 CB         32.6487   33.5757    4.0302 C.3       9 UNK        -0.1959 
     57 C          32.6077   31.1372    4.6755 C.2       9 UNK         0.5033 
     58 O          32.7430   30.9377    5.8838 O.2       9 UNK        -0.5390 
     59 N          33.2103   30.3985    3.7374 N.am      10 UNK        -0.4215 
     60 CA         34.2240   29.3789    4.0146 C.3       10 UNK         0.0240 
     61 CB         35.3278   29.4984    2.9475 C.3       10 UNK        -0.1982 
     62 C          33.6354   27.9609    4.0338 C.2       10 UNK         0.4970 
     63 O          32.5096   27.7419    3.5819 O.2       10 UNK        -0.4916 
     64 N          34.4415   27.0156    4.5289 N.am      11 UNK        -0.4279 
     65 CA         34.1167   25.5812    4.5854 C.3       11 UNK         0.1003 
     66 C          34.3769   24.8108    3.2577 C.2       11 UNK         0.5709 
     67 N          34.9579   25.4239    2.2328 N.am      11 UNK        -0.7358 
     68 O          34.0559   23.6296    3.1572 O.2       11 UNK        -0.4999 
     69 C69        34.8135   24.8727    5.7819 C.3       12 UNK        -0.0954 
     70 S70        34.6062   25.7295    7.3820 S.3       12 UNK        -0.2268 
     71 C71        33.1146   24.9292    8.0511 C.3       12 UNK         0.0203 
     72 H72        31.9808   21.8926   -1.1516 H         1 UNK         0.0888 
     73 H73        31.8019   22.6158   -2.7520 H         1 UNK         0.0888 
     74 H74        33.0845   23.1676   -1.6709 H         1 UNK         0.0888 
     75 H75        30.4625   22.6472    0.3124 H         1 UNK         0.3017 
     76 H76        30.0108   25.4008    0.7903 H         1 UNK         0.0873 
     77 H77        28.3194   24.6204    2.4493 H         1 UNK         0.0745 
     78 H78        28.4321   22.9881    1.8357 H         1 UNK         0.0745 
     79 H79        28.4783   23.7925    4.6071 H         1 UNK         0.0705 
     80 H80        29.6319   22.6121    5.1660 H         1 UNK         0.0705 
     81 H81        31.6946   23.3167    6.3641 H         1 UNK         0.1334 
     82 H82        31.8213   27.3135    7.9052 H         1 UNK         0.1417 
     83 H83        28.7633   26.1657    5.1168 H         1 UNK         0.1562 
     84 H84        30.5324   29.0494    6.4755 H         1 UNK         0.0748 
     85 H85        29.3542   28.5034    7.6401 H         1 UNK         0.0748 
     86 H86        30.2872   29.0959    4.0927 H         1 UNK         0.0940 
     87 H87        28.9606   30.1152    3.6059 H         1 UNK         0.0940 
     88 H88        29.1543   27.0893    3.0742 H         1 UNK         0.0703 
     89 H89        27.2014   28.7491    1.7028 H         1 UNK         0.3081 
     90 H90        24.3990   27.3328    2.8996 H         1 UNK         0.0719 
     91 H91        25.0900   29.4108    1.6713 H         1 UNK         0.0809 
     92 H92        25.6760   28.4318    0.3209 H         1 UNK         0.0809 
     93 H93        23.9650   28.4627    0.7197 H         1 UNK         0.0809 
     94 H94        25.8191   25.7083    0.8724 H         1 UNK         0.2990 
     95 H95        24.1523   23.1565    1.3658 H         1 UNK         0.0690 
     96 H96        22.7400   22.5667   -0.6253 H         1 UNK         0.0788 
     97 H97        22.3660   24.2750   -0.8542 H         1 UNK         0.0788 
     98 H98        21.8423   23.4441    0.6002 H         1 UNK         0.0788 
     99 H99        25.8389   23.1290   -0.0403 H         1 UNK         0.2993 
    100 H100       26.5911   23.2933   -2.6911 H         1 UNK         0.0949 
    101 H101       27.1473   26.3080   -2.7043 H         1 UNK         0.0767 
    102 H102       28.0113   25.1129   -3.6695 H         1 UNK         0.0767 
    103 H103       26.3023   25.4004   -3.9512 H         1 UNK         0.0767 
    104 H104       28.3641   23.1885   -1.3362 H         1 UNK         0.3013 
    105 H105       31.3124   27.6002    2.1368 H         1 UNK         0.3121 
    106 H106       31.0848   27.9948   -0.7305 H         1 UNK         0.0774 
    107 H107       33.5623   27.6615    1.0412 H         1 UNK         0.0815 
    108 H108       32.6800   26.3463    0.2736 H         1 UNK         0.0815 
    109 H109       33.5161   27.5381   -0.7098 H         1 UNK         0.0815 
    110 H110       31.2994   29.8812   -1.7929 H         1 UNK         0.2987 
    111 H111       31.3087   32.0645   -2.2131 H         1 UNK         0.0949 
    112 H112       33.8015   31.7785   -2.0066 H         1 UNK         0.0806 
    113 H113       33.2825   33.3982   -1.5756 H         1 UNK         0.0806 
    114 H114       33.7085   32.2552   -0.3117 H         1 UNK         0.0806 
    115 H115       29.7484   31.0480    0.1053 H         1 UNK         0.3010 
    116 H116       28.3705   31.6439    1.6889 H         1 UNK         0.0829 
    117 H117       28.7406   34.5626    0.8473 H         1 UNK         0.0813 
    118 H118       27.6238   33.4265    0.0909 H         1 UNK         0.0813 
    119 H119       27.4010   33.8957    1.7664 H         1 UNK         0.0813 
    120 H120       31.3178   31.4722    2.3180 H         1 UNK         0.3038 
    121 H121       31.0799   32.5358    5.0578 H         1 UNK         0.0769 
    122 H122       32.0525   34.4752    3.8760 H         1 UNK         0.0811 
    123 H123       33.3103   33.4623    3.1705 H         1 UNK         0.0811 
    124 H124       33.2749   33.7515    4.9061 H         1 UNK         0.0811 
    125 H125       32.9850   30.5270    2.7508 H         1 UNK         0.3204 
    126 H126       34.6769   29.5639    4.9912 H         1 UNK         0.0748 
    127 H127       34.9407   29.3384    1.9411 H         1 UNK         0.0771 
    128 H128       35.7852   30.4878    2.9685 H         1 UNK         0.0771 
    129 H129       36.1275   28.7754    3.1116 H         1 UNK         0.0771 
    130 H130       35.3508   27.2733    4.8822 H         1 UNK         0.2980 
    131 H131       33.0413   25.5031    4.7394 H         1 UNK         0.0545 
    132 H132       35.1266   24.9073    1.3848 H         1 UNK         0.3459 
    133 H133       35.2471   26.3841    2.3077 H         1 UNK         0.3459 
    134 H134       35.8858   24.7928    5.5949 H         1 UNK         0.0616 
    135 H135       34.4495   23.8488    5.8845 H         1 UNK         0.0616 
    136 H136       32.9692   25.2597    9.0805 H         1 UNK         0.0634 
    137 H137       33.2689   23.8499    8.0938 H         1 UNK         0.0634 
@<TRIPOS>BOND
     1    1    2 1    
     2    1   72 1    
     3    1   73 1    
     4    1   74 1    
     5    2    3 2    
     6    2    4 am   BACKBONE|DICT|INTERRES
     7    4    5 1    
     8    4   75 1    
     9    5    6 1    
    10    5   35 1    
    11    5   76 1    
    12    6    7 1    
    13    6   77 1    
    14    6   78 1    
    15    7    8 1    
    16    8    9 1    
    17    8   79 1    
    18    8   80 1    
    19    9   10 ar   
    20    9   14 ar   
    21   10   11 ar   
    22   10   81 1    
    23   11   12 ar   
    24   11   71 1    
    25   12   13 ar   
    26   12   82 1    
    27   13   14 ar   
    28   13   15 1    
    29   14   83 1    
    30   15   16 1    
    31   15   84 1    
    32   15   85 1    
    33   16   17 1    
    34   17   18 1    
    35   17   86 1    
    36   17   87 1    
    37   18   19 1    
    38   18   37 1    
    39   18   88 1    
    40   19   20 am   BACKBONE|DICT|INTERRES
    41   19   89 1    
    42   20   21 2    
    43   20   22 1    
    44   22   23 1    
    45   22   24 1    
    46   22   90 1    
    47   23   91 1    
    48   23   92 1    
    49   23   93 1    
    50   24   25 am   BACKBONE|DICT|INTERRES
    51   24   94 1    
    52   25   26 2    
    53   25   27 1    
    54   27   28 1    
    55   27   29 1    
    56   27   95 1    
    57   28   96 1    
    58   28   97 1    
    59   28   98 1    
    60   29   30 am   BACKBONE|DICT|INTERRES
    61   29   99 1    
    62   30   31 2    
    63   30   32 1    
    64   32   33 1    
    65   32   34 1    
    66   32  100 1    
    67   33  101 1    
    68   33  102 1    
    69   33  103 1    
    70   34   35 am   BACKBONE|DICT|INTERRES
    71   34  104 1    
    72   35   36 2    
    73   37   38 2    
    74   37   39 am   BACKBONE|DICT|INTERRES
    75   39   40 1    
    76   39  105 1    
    77   40   41 1    
    78   40   42 1    
    79   40  106 1    
    80   41  107 1    
    81   41  108 1    
    82   41  109 1    
    83   42   43 2    
    84   42   44 am   BACKBONE|DICT|INTERRES
    85   44   45 1    
    86   44  110 1    
    87   45   46 1    
    88   45   47 1    
    89   45  111 1    
    90   46  112 1    
    91   46  113 1    
    92   46  114 1    
    93   47   48 2    
    94   47   49 am   BACKBONE|DICT|INTERRES
    95   49   50 1    
    96   49  115 1    
    97   50   51 1    
    98   50   52 1    
    99   50  116 1    
   100   51  117 1    
   101   51  118 1    
   102   51  119 1    
   103   52   53 2    
   104   52   54 am   BACKBONE|DICT|INTERRES
   105   54   55 1    
   106   54  120 1    
   107   55   56 1    
   108   55   57 1    
   109   55  121 1    
   110   56  122 1    
   111   56  123 1    
   112   56  124 1    
   113   57   58 2    
   114   57   59 am   BACKBONE|DICT|INTERRES
   115   59   60 1    
   116   59  125 1    
   117   60   61 1    
   118   60   62 1    
   119   60  126 1    
   120   61  127 1    
   121   61  128 1    
   122   61  129 1    
   123   62   63 2    
   124   62   64 am   BACKBONE|DICT|INTERRES
   125   64   65 1    
   126   64  130 1    
   127   65   66 1    
   128   65   69 1    
   129   65  131 1    
   130   66   67 am   BACKBONE|DICT|INTERRES
   131   66   68 2    
   132   67  132 1    
   133   67  133 1    
   134   69   70 1    
   135   69  134 1    
   136   69  135 1    
   137   70   71 1    
   138   71  136 1    
   139   71  137 1    
@<TRIPOS>SUBSTRUCTURE
     1 UNK         1 GROUP             0       ****    0 ROOT    
