@<TRIPOS>MOLECULE
3R136
137   139    1
SMALL
USER_CHARGES


@<TRIPOS>ATOM
      1 CA         33.1262   26.8060   -0.2416 C.3       0 UNK        -0.1979 
      2 C          31.8246   26.1002    0.1087 C.2       0 UNK         0.4864 
      3 O          31.1352   26.4972    1.0472 O.2       0 UNK        -0.5359 
      4 N          31.4959   25.0442   -0.6446 N.am      1 UNK        -0.4318 
      5 CA         30.3465   24.1597   -0.4095 C.3       1 UNK         0.0824 
      6 C6         30.4866   22.8035   -1.1620 C.3       12 UNK        -0.0944 
      7 S7         32.1910   22.1315   -1.2144 S.3       12 UNK        -0.2672 
      8 C8         32.2762   21.0880    0.2766 C.3       12 UNK         0.0333 
      9 C9         31.9871   21.8677    1.5521 C.ar      12 UNK        -0.0807 
     10 C10        32.7708   22.9699    1.9122 C.ar      12 UNK        -0.0894 
     11 C11        32.4634   23.7206    3.0523 C.ar      12 UNK        -0.0804 
     12 C12        31.3889   23.3322    3.8579 C.ar      12 UNK        -0.0824 
     13 C13        30.6142   22.2175    3.5200 C.ar      12 UNK        -0.0762 
     14 C14        30.9146   21.4941    2.3643 C.ar      12 UNK        -0.0782 
     15 C15        29.4450   21.7861    4.3901 C.3       12 UNK         0.0230 
     16 S16        27.8795   22.4972    3.7952 S.3       12 UNK        -0.2608 
     17 C17        28.0285   24.2137    4.3902 C.3       12 UNK        -0.0989 
     18 CA         28.0721   25.2658    3.2425 C.3       5 UNK         0.0716 
     19 N          26.8632   25.2574    2.4076 N.am      5 UNK        -0.4135 
     20 C          25.6093   25.4897    2.8282 C.2       4 UNK         0.5031 
     21 O          25.3086   25.7954    3.9842 O.2       4 UNK        -0.5229 
     22 CA         24.5028   25.3451    1.7661 C.3       4 UNK         0.0329 
     23 CB         23.0787   25.3721    2.3630 C.3       4 UNK        -0.2001 
     24 N          24.6393   26.3374    0.6975 N.am      4 UNK        -0.4303 
     25 C          24.6319   27.6760    0.8099 C.2       3 UNK         0.5044 
     26 O          24.4013   28.2865    1.8543 O.2       3 UNK        -0.5152 
     27 CA         24.9493   28.4577   -0.4835 C.3       3 UNK         0.0319 
     28 CB         25.4146   29.9055   -0.2149 C.3       3 UNK        -0.2001 
     29 N          25.9058   27.7628   -1.3587 N.am      3 UNK        -0.4354 
     30 C          27.1449   27.3677   -1.0316 C.2       2 UNK         0.4964 
     31 O          27.6640   27.5697    0.0687 O.2       2 UNK        -0.5047 
     32 CA         27.9232   26.6336   -2.1357 C.3       2 UNK         0.0288 
     33 CB         28.4598   27.6414   -3.1668 C.3       2 UNK        -0.2113 
     34 N          29.0483   25.8428   -1.6345 N.am      2 UNK        -0.4145 
     35 C          28.9985   24.8336   -0.7509 C.2       1 UNK         0.5006 
     36 O          27.9589   24.4240   -0.2271 O.2       1 UNK        -0.5103 
     37 C          28.3808   26.6810    3.7775 C.2       5 UNK         0.5055 
     38 O          28.5118   26.8539    4.9924 O.2       5 UNK        -0.5220 
     39 N          28.4718   27.6741    2.8829 N.am      6 UNK        -0.4450 
     40 CA         28.7519   29.0586    3.2647 C.3       6 UNK         0.0367 
     41 CB         27.4402   29.8010    3.5772 C.3       6 UNK        -0.1929 
     42 C          29.5754   29.8117    2.2180 C.2       6 UNK         0.5070 
     43 O          30.5434   30.4712    2.5927 O.2       6 UNK        -0.5237 
     44 N          29.1752   29.7370    0.9405 N.am      7 UNK        -0.4739 
     45 CA         29.6986   30.5138   -0.1908 C.3       7 UNK         0.0276 
     46 CB         31.0548   29.9374   -0.6477 C.3       7 UNK        -0.1927 
     47 C          29.7185   32.0255    0.1241 C.2       7 UNK         0.5013 
     48 O          28.6506   32.5975    0.3507 O.2       7 UNK        -0.5193 
     49 N          30.9130   32.6330    0.1628 N.am      8 UNK        -0.4253 
     50 CA         31.1327   33.9842    0.6801 C.3       8 UNK         0.0242 
     51 CB         32.4348   34.5643    0.0988 C.3       8 UNK        -0.2000 
     52 C          31.1454   33.9839    2.2193 C.2       8 UNK         0.4948 
     53 O          30.2974   34.6346    2.8313 O.2       8 UNK        -0.5275 
     54 N          32.0964   33.2449    2.8078 N.am      9 UNK        -0.4246 
     55 CA         32.2718   33.0553    4.2506 C.3       9 UNK         0.0261 
     56 CB         32.7623   34.3583    4.9223 C.3       9 UNK        -0.1959 
     57 C          33.2176   31.8671    4.5050 C.2       9 UNK         0.5033 
     58 O          34.1738   31.9905    5.2737 O.2       9 UNK        -0.5390 
     59 N          32.9655   30.7455    3.8216 N.am      10 UNK        -0.4215 
     60 CA         33.7538   29.5176    3.9095 C.3       10 UNK         0.0240 
     61 CB         33.6904   28.7909    2.5579 C.3       10 UNK        -0.1982 
     62 C          33.2219   28.6046    5.0229 C.2       10 UNK         0.4970 
     63 O          32.0096   28.5427    5.2352 O.2       10 UNK        -0.4916 
     64 N          34.1441   27.8877    5.6787 N.am      11 UNK        -0.4279 
     65 CA         33.8877   26.8753    6.7222 C.3       11 UNK         0.1003 
     66 C          33.1903   27.4102    8.0125 C.2       11 UNK         0.5709 
     67 N          33.2170   28.7095    8.2856 N.am      11 UNK        -0.7358 
     68 O          32.6522   26.6375    8.8024 O.2       11 UNK        -0.4999 
     69 C69        33.2254   25.5832    6.1568 C.3       12 UNK        -0.0954 
     70 S70        34.2663   24.7778    4.8883 S.3       12 UNK        -0.2268 
     71 C71        33.2644   24.9740    3.3825 C.3       12 UNK         0.0203 
     72 H72        33.9113   26.5082    0.4517 H         1 UNK         0.0888 
     73 H73        33.4567   26.5656   -1.2519 H         1 UNK         0.0888 
     74 H74        33.0094   27.8855   -0.1771 H         1 UNK         0.0888 
     75 H75        32.1209   24.7413   -1.3787 H         1 UNK         0.3017 
     76 H76        30.3180   23.9490    0.6612 H         1 UNK         0.0873 
     77 H77        29.8194   22.0593   -0.7229 H         1 UNK         0.0745 
     78 H78        30.1697   22.9105   -2.2015 H         1 UNK         0.0745 
     79 H79        33.2739   20.6528    0.3460 H         1 UNK         0.0705 
     80 H80        31.5835   20.2530    0.1602 H         1 UNK         0.0705 
     81 H81        33.5954   23.2648    1.2777 H         1 UNK         0.1334 
     82 H82        31.1570   23.9032    4.7451 H         1 UNK         0.1417 
     83 H83        30.3029   20.6436    2.0942 H         1 UNK         0.1562 
     84 H84        29.6131   22.0624    5.4323 H         1 UNK         0.0748 
     85 H85        29.3610   20.6982    4.3792 H         1 UNK         0.0748 
     86 H86        28.9180   24.2970    5.0145 H         1 UNK         0.0940 
     87 H87        27.1954   24.4081    5.0670 H         1 UNK         0.0940 
     88 H88        28.9038   25.0066    2.5849 H         1 UNK         0.0703 
     89 H89        27.0224   25.0296    1.4304 H         1 UNK         0.3081 
     90 H90        24.6432   24.3669    1.3030 H         1 UNK         0.0719 
     91 H91        22.8611   26.3181    2.8598 H         1 UNK         0.0809 
     92 H92        22.3230   25.2167    1.5931 H         1 UNK         0.0809 
     93 H93        22.9541   24.5817    3.1042 H         1 UNK         0.0809 
     94 H94        24.8486   25.9593   -0.2155 H         1 UNK         0.2990 
     95 H95        24.0104   28.5129   -1.0365 H         1 UNK         0.0690 
     96 H96        25.5972   30.4421   -1.1458 H         1 UNK         0.0788 
     97 H97        26.3319   29.9367    0.3717 H         1 UNK         0.0788 
     98 H98        24.6583   30.4656    0.3363 H         1 UNK         0.0788 
     99 H99        25.5694   27.5581   -2.2901 H         1 UNK         0.2993 
    100 H100       27.2376   25.9443   -2.6327 H         1 UNK         0.0949 
    101 H101       29.1672   28.3393   -2.7171 H         1 UNK         0.0767 
    102 H102       28.9651   27.1363   -3.9904 H         1 UNK         0.0767 
    103 H103       27.6532   28.2327   -3.6024 H         1 UNK         0.0767 
    104 H104       29.9615   26.1096   -1.9692 H         1 UNK         0.3013 
    105 H105       28.3671   27.4779    1.8901 H         1 UNK         0.3121 
    106 H106       29.3623   29.0622    4.1712 H         1 UNK         0.0774 
    107 H107       27.6288   30.8494    3.8122 H         1 UNK         0.0815 
    108 H108       26.7495   29.7713    2.7345 H         1 UNK         0.0815 
    109 H109       26.9331   29.3613    4.4361 H         1 UNK         0.0815 
    110 H110       28.4088   29.1089    0.7123 H         1 UNK         0.2987 
    111 H111       28.9895   30.3847   -1.0099 H         1 UNK         0.0949 
    112 H112       30.9426   28.8934   -0.9384 H         1 UNK         0.0806 
    113 H113       31.4425   30.4682   -1.5182 H         1 UNK         0.0806 
    114 H114       31.8065   29.9808    0.1410 H         1 UNK         0.0806 
    115 H115       31.7318   32.0774   -0.0341 H         1 UNK         0.3010 
    116 H116       30.3103   34.6252    0.3540 H         1 UNK         0.0829 
    117 H117       32.3737   34.6558   -0.9858 H         1 UNK         0.0813 
    118 H118       32.6262   35.5625    0.4954 H         1 UNK         0.0813 
    119 H119       33.3041   33.9486    0.3315 H         1 UNK         0.0813 
    120 H120       32.7382   32.7261    2.2251 H         1 UNK         0.3038 
    121 H121       31.3050   32.7844    4.6799 H         1 UNK         0.0769 
    122 H122       32.9015   34.2179    5.9950 H         1 UNK         0.0811 
    123 H123       32.0472   35.1714    4.8012 H         1 UNK         0.0811 
    124 H124       33.7160   34.6868    4.5080 H         1 UNK         0.0811 
    125 H125       32.0825   30.6757    3.3079 H         1 UNK         0.3204 
    126 H126       34.7963   29.7696    4.1163 H         1 UNK         0.0748 
    127 H127       34.2964   27.8844    2.5733 H         1 UNK         0.0771 
    128 H128       32.6688   28.4980    2.3098 H         1 UNK         0.0771 
    129 H129       34.0653   29.4195    1.7502 H         1 UNK         0.0771 
    130 H130       35.1162   28.0146    5.4376 H         1 UNK         0.2980 
    131 H131       34.8780   26.5859    7.0755 H         1 UNK         0.0545 
    132 H132       32.7762   29.0454    9.1272 H         1 UNK         0.3459 
    133 H133       33.6589   29.3565    7.6524 H         1 UNK         0.3459 
    134 H134       32.2334   25.8032    5.7604 H         1 UNK         0.0616 
    135 H135       33.0762   24.8478    6.9490 H         1 UNK         0.0616 
    136 H136       32.5927   25.8290    3.4741 H         1 UNK         0.0634 
    137 H137       33.9408   25.2142    2.5618 H         1 UNK         0.0634 
@<TRIPOS>BOND
     1    1    2 1    
     2    1   72 1    
     3    1   73 1    
     4    1   74 1    
     5    2    3 2    
     6    2    4 am   BACKBONE|DICT|INTERRES
     7    4    5 1    
     8    4   75 1    
     9    5    6 1    
    10    5   35 1    
    11    5   76 1    
    12    6    7 1    
    13    6   77 1    
    14    6   78 1    
    15    7    8 1    
    16    8    9 1    
    17    8   79 1    
    18    8   80 1    
    19    9   10 ar   
    20    9   14 ar   
    21   10   11 ar   
    22   10   81 1    
    23   11   12 ar   
    24   11   71 1    
    25   12   13 ar   
    26   12   82 1    
    27   13   14 ar   
    28   13   15 1    
    29   14   83 1    
    30   15   16 1    
    31   15   84 1    
    32   15   85 1    
    33   16   17 1    
    34   17   18 1    
    35   17   86 1    
    36   17   87 1    
    37   18   19 1    
    38   18   37 1    
    39   18   88 1    
    40   19   20 am   BACKBONE|DICT|INTERRES
    41   19   89 1    
    42   20   21 2    
    43   20   22 1    
    44   22   23 1    
    45   22   24 1    
    46   22   90 1    
    47   23   91 1    
    48   23   92 1    
    49   23   93 1    
    50   24   25 am   BACKBONE|DICT|INTERRES
    51   24   94 1    
    52   25   26 2    
    53   25   27 1    
    54   27   28 1    
    55   27   29 1    
    56   27   95 1    
    57   28   96 1    
    58   28   97 1    
    59   28   98 1    
    60   29   30 am   BACKBONE|DICT|INTERRES
    61   29   99 1    
    62   30   31 2    
    63   30   32 1    
    64   32   33 1    
    65   32   34 1    
    66   32  100 1    
    67   33  101 1    
    68   33  102 1    
    69   33  103 1    
    70   34   35 am   BACKBONE|DICT|INTERRES
    71   34  104 1    
    72   35   36 2    
    73   37   38 2    
    74   37   39 am   BACKBONE|DICT|INTERRES
    75   39   40 1    
    76   39  105 1    
    77   40   41 1    
    78   40   42 1    
    79   40  106 1    
    80   41  107 1    
    81   41  108 1    
    82   41  109 1    
    83   42   43 2    
    84   42   44 am   BACKBONE|DICT|INTERRES
    85   44   45 1    
    86   44  110 1    
    87   45   46 1    
    88   45   47 1    
    89   45  111 1    
    90   46  112 1    
    91   46  113 1    
    92   46  114 1    
    93   47   48 2    
    94   47   49 am   BACKBONE|DICT|INTERRES
    95   49   50 1    
    96   49  115 1    
    97   50   51 1    
    98   50   52 1    
    99   50  116 1    
   100   51  117 1    
   101   51  118 1    
   102   51  119 1    
   103   52   53 2    
   104   52   54 am   BACKBONE|DICT|INTERRES
   105   54   55 1    
   106   54  120 1    
   107   55   56 1    
   108   55   57 1    
   109   55  121 1    
   110   56  122 1    
   111   56  123 1    
   112   56  124 1    
   113   57   58 2    
   114   57   59 am   BACKBONE|DICT|INTERRES
   115   59   60 1    
   116   59  125 1    
   117   60   61 1    
   118   60   62 1    
   119   60  126 1    
   120   61  127 1    
   121   61  128 1    
   122   61  129 1    
   123   62   63 2    
   124   62   64 am   BACKBONE|DICT|INTERRES
   125   64   65 1    
   126   64  130 1    
   127   65   66 1    
   128   65   69 1    
   129   65  131 1    
   130   66   67 am   BACKBONE|DICT|INTERRES
   131   66   68 2    
   132   67  132 1    
   133   67  133 1    
   134   69   70 1    
   135   69  134 1    
   136   69  135 1    
   137   70   71 1    
   138   71  136 1    
   139   71  137 1    
@<TRIPOS>SUBSTRUCTURE
     1 UNK         1 GROUP             0       ****    0 ROOT    
