@<TRIPOS>MOLECULE
3R136
137   139    1
SMALL
USER_CHARGES


@<TRIPOS>ATOM
      1 CA         31.1452   24.3170   -4.5758 C.3       0 UNK        -0.1979 
      2 C          31.4757   23.4950   -3.3321 C.2       0 UNK         0.4864 
      3 O          32.2769   22.5657   -3.4200 O.2       0 UNK        -0.5359 
      4 N          30.9032   23.7951   -2.1581 N.am      1 UNK        -0.4318 
      5 CA         29.8720   24.8077   -1.9070 C.3       1 UNK         0.0824 
      6 C6         29.8098   25.2214   -0.4130 C.3       12 UNK        -0.0944 
      7 S7         31.4019   25.8532    0.2195 S.3       12 UNK        -0.2672 
      8 C8         32.0445   24.4164    1.1413 C.3       12 UNK         0.0333 
      9 C9         31.5195   24.3727    2.5694 C.ar      12 UNK        -0.0807 
     10 C10        32.2488   24.9742    3.5994 C.ar      12 UNK        -0.0894 
     11 C11        31.7727   24.9531    4.9134 C.ar      12 UNK        -0.0804 
     12 C12        30.5568   24.3252    5.1960 C.ar      12 UNK        -0.0824 
     13 C13        29.8238   23.7104    4.1770 C.ar      12 UNK        -0.0762 
     14 C14        30.3164   23.7252    2.8689 C.ar      12 UNK        -0.0782 
     15 C15        28.4963   23.0340    4.4865 C.3       12 UNK         0.0230 
     16 S16        27.0834   23.9756    3.8268 S.3       12 UNK        -0.2608 
     17 C17        27.2051   25.5461    4.7529 C.3       12 UNK        -0.0989 
     18 CA         27.7801   26.6946    3.8870 C.3       5 UNK         0.0716 
     19 N          26.9703   26.9297    2.6918 N.am      5 UNK        -0.4135 
     20 C          27.2531   27.7785    1.6982 C.2       4 UNK         0.5031 
     21 O          28.2765   28.4682    1.6577 O.2       4 UNK        -0.5229 
     22 CA         26.2155   27.8583    0.5603 C.3       4 UNK         0.0329 
     23 CB         26.6939   28.7066   -0.6313 C.3       4 UNK        -0.2001 
     24 N          25.8438   26.5388    0.0484 N.am      4 UNK        -0.4303 
     25 C          24.9860   25.6694    0.5971 C.2       3 UNK         0.5044 
     26 O          24.4209   25.8742    1.6722 O.2       3 UNK        -0.5152 
     27 CA         24.7493   24.3351   -0.1450 C.3       3 UNK         0.0319 
     28 CB         23.2465   24.0470   -0.3403 C.3       3 UNK        -0.2001 
     29 N          25.4910   24.2013   -1.4109 N.am      3 UNK        -0.4354 
     30 C          25.3404   24.8992   -2.5475 C.2       2 UNK         0.4964 
     31 O          24.4680   25.7504   -2.7218 O.2       2 UNK        -0.5047 
     32 CA         26.4125   24.6614   -3.6298 C.3       2 UNK         0.0288 
     33 CB         26.1309   25.4417   -4.9281 C.3       2 UNK        -0.2113 
     34 N          27.7489   25.0247   -3.1400 N.am      2 UNK        -0.4145 
     35 C          28.5081   24.2495   -2.3536 C.2       1 UNK         0.5006 
     36 O          28.1514   23.1382   -1.9532 O.2       1 UNK        -0.5103 
     37 C          27.9018   27.9958    4.7018 C.2       5 UNK         0.5055 
     38 O          26.8767   28.5765    5.0661 O.2       5 UNK        -0.5220 
     39 N          29.1455   28.4372    4.9337 N.am      6 UNK        -0.4450 
     40 CA         29.5321   29.6991    5.5810 C.3       6 UNK         0.0367 
     41 CB         29.0645   29.7424    7.0515 C.3       6 UNK        -0.1929 
     42 C          29.1489   30.9676    4.7896 C.2       6 UNK         0.5070 
     43 O          29.1506   32.0566    5.3664 O.2       6 UNK        -0.5237 
     44 N          28.8536   30.8223    3.4902 N.am      7 UNK        -0.4739 
     45 CA         28.5758   31.9244    2.5677 C.3       7 UNK         0.0276 
     46 CB         27.1109   31.8625    2.1051 C.3       7 UNK        -0.1927 
     47 C          29.5463   31.8950    1.3797 C.2       7 UNK         0.5013 
     48 O          30.1198   32.9335    1.0496 O.2       7 UNK        -0.5193 
     49 N          29.7430   30.7137    0.7759 N.am      8 UNK        -0.4253 
     50 CA         30.6951   30.4968   -0.3197 C.3       8 UNK         0.0242 
     51 CB         30.1990   29.3414   -1.2040 C.3       8 UNK        -0.2000 
     52 C          32.1323   30.2299    0.1629 C.2       8 UNK         0.4948 
     53 O          33.0474   30.2422   -0.6623 O.2       8 UNK        -0.5275 
     54 N          32.3157   29.9934    1.4666 N.am      9 UNK        -0.4246 
     55 CA         33.6007   29.7393    2.1069 C.3       9 UNK         0.0261 
     56 CB         33.7663   28.2261    2.3239 C.3       9 UNK        -0.1959 
     57 C          33.6381   30.4807    3.4447 C.2       9 UNK         0.5033 
     58 O          32.6002   30.6126    4.0986 O.2       9 UNK        -0.5390 
     59 N          34.8376   30.9138    3.8481 N.am      10 UNK        -0.4215 
     60 CA         35.1104   31.5371    5.1434 C.3       10 UNK         0.0240 
     61 CB         36.2887   32.5180    4.9917 C.3       10 UNK        -0.1982 
     62 C          35.3780   30.4455    6.1934 C.2       10 UNK         0.4970 
     63 O          36.5260   30.2403    6.5927 O.2       10 UNK        -0.4916 
     64 N          34.3137   29.7281    6.5684 N.am      11 UNK        -0.4279 
     65 CA         34.3243   28.6079    7.5210 C.3       11 UNK         0.1003 
     66 C          34.8267   29.0082    8.9362 C.2       11 UNK         0.5709 
     67 N          35.5446   28.1227    9.6140 N.am      11 UNK        -0.7358 
     68 O          34.5339   30.0919    9.4391 O.2       11 UNK        -0.4999 
     69 C69        32.9313   27.9352    7.6179 C.3       12 UNK        -0.0954 
     70 S70        32.2751   27.4132    5.9996 S.3       12 UNK        -0.2268 
     71 C71        32.5617   25.6233    6.0254 C.3       12 UNK         0.0203 
     72 H72        31.7489   23.9864   -5.4208 H         1 UNK         0.0888 
     73 H73        30.0987   24.2029   -4.8557 H         1 UNK         0.0888 
     74 H74        31.3586   25.3734   -4.4162 H         1 UNK         0.0888 
     75 H75        31.1255   23.2150   -1.3639 H         1 UNK         0.3017 
     76 H76        30.1021   25.7033   -2.4865 H         1 UNK         0.0873 
     77 H77        29.0705   26.0119   -0.2711 H         1 UNK         0.0745 
     78 H78        29.4740   24.3897    0.2055 H         1 UNK         0.0745 
     79 H79        33.1339   24.4751    1.1524 H         1 UNK         0.0705 
     80 H80        31.8006   23.4910    0.6189 H         1 UNK         0.0705 
     81 H81        33.1851   25.4678    3.3786 H         1 UNK         0.1334 
     82 H82        30.1806   24.3178    6.2100 H         1 UNK         0.1417 
     83 H83        29.7497   23.2402    2.0872 H         1 UNK         0.1562 
     84 H84        28.3676   22.8961    5.5613 H         1 UNK         0.0748 
     85 H85        28.4902   22.0349    4.0485 H         1 UNK         0.0748 
     86 H86        27.8128   25.3952    5.6468 H         1 UNK         0.0940 
     87 H87        26.2060   25.8023    5.1115 H         1 UNK         0.0940 
     88 H88        28.7757   26.4018    3.5458 H         1 UNK         0.0703 
     89 H89        26.0935   26.4224    2.6386 H         1 UNK         0.3081 
     90 H90        25.3271   28.3371    0.9773 H         1 UNK         0.0719 
     91 H91        27.5276   28.2291   -1.1444 H         1 UNK         0.0809 
     92 H92        25.8945   28.8466   -1.3593 H         1 UNK         0.0809 
     93 H93        27.0196   29.6992   -0.3211 H         1 UNK         0.0809 
     94 H94        26.2554   26.2746   -0.8328 H         1 UNK         0.2990 
     95 H95        25.1479   23.5601    0.5116 H         1 UNK         0.0690 
     96 H96        23.0870   23.0916   -0.8399 H         1 UNK         0.0788 
     97 H97        22.7554   24.8216   -0.9298 H         1 UNK         0.0788 
     98 H98        22.7311   23.9989    0.6198 H         1 UNK         0.0788 
     99 H99        26.2776   23.5576   -1.3835 H         1 UNK         0.2993 
    100 H100       26.3955   23.5965   -3.8740 H         1 UNK         0.0949 
    101 H101       26.1396   26.5201   -4.7642 H         1 UNK         0.0767 
    102 H102       26.8705   25.2131   -5.6959 H         1 UNK         0.0767 
    103 H103       25.1531   25.1813   -5.3357 H         1 UNK         0.0767 
    104 H104       28.0895   25.9355   -3.4141 H         1 UNK         0.3013 
    105 H105       29.9203   27.8821    4.5944 H         1 UNK         0.3121 
    106 H106       30.6209   29.7048    5.5970 H         1 UNK         0.0774 
    107 H107       29.4964   30.5969    7.5737 H         1 UNK         0.0815 
    108 H108       27.9808   29.8288    7.1319 H         1 UNK         0.0815 
    109 H109       29.3737   28.8472    7.5910 H         1 UNK         0.0815 
    110 H110       28.8436   29.8886    3.0959 H         1 UNK         0.2987 
    111 H111       28.7250   32.8850    3.0661 H         1 UNK         0.0949 
    112 H112       26.9008   32.6310    1.3599 H         1 UNK         0.0806 
    113 H113       26.8618   30.8987    1.6646 H         1 UNK         0.0806 
    114 H114       26.4310   32.0273    2.9412 H         1 UNK         0.0806 
    115 H115       29.2206   29.8967    1.0897 H         1 UNK         0.3010 
    116 H116       30.7353   31.3943   -0.9409 H         1 UNK         0.0829 
    117 H117       29.2848   29.6194   -1.7264 H         1 UNK         0.0813 
    118 H118       30.9330   29.0808   -1.9679 H         1 UNK         0.0813 
    119 H119       30.0035   28.4422   -0.6195 H         1 UNK         0.0813 
    120 H120       31.5325   30.0760    2.1004 H         1 UNK         0.3038 
    121 H121       34.4160   30.1090    1.4811 H         1 UNK         0.0769 
    122 H122       34.7037   27.9978    2.8325 H         1 UNK         0.0811 
    123 H123       33.7693   27.6882    1.3757 H         1 UNK         0.0811 
    124 H124       32.9557   27.8231    2.9321 H         1 UNK         0.0811 
    125 H125       35.6423   30.7245    3.2670 H         1 UNK         0.3204 
    126 H126       34.2395   32.1107    5.4690 H         1 UNK         0.0748 
    127 H127       36.5209   32.9975    5.9436 H         1 UNK         0.0771 
    128 H128       37.1953   32.0178    4.6483 H         1 UNK         0.0771 
    129 H129       36.0541   33.3100    4.2802 H         1 UNK         0.0771 
    130 H130       33.4208   29.9382    6.1418 H         1 UNK         0.2980 
    131 H131       35.0226   27.8711    7.1192 H         1 UNK         0.0545 
    132 H132       35.7796   27.2264    9.2169 H         1 UNK         0.3459 
    133 H133       35.8653   28.3591   10.5401 H         1 UNK         0.3459 
    134 H134       32.2079   28.6258    8.0558 H         1 UNK         0.0616 
    135 H135       32.9670   27.0732    8.2863 H         1 UNK         0.0616 
    136 H136       32.2688   25.2155    6.9940 H         1 UNK         0.0634 
    137 H137       33.6277   25.4234    5.9084 H         1 UNK         0.0634 
@<TRIPOS>BOND
     1    1    2 1    
     2    1   72 1    
     3    1   73 1    
     4    1   74 1    
     5    2    3 2    
     6    2    4 am   BACKBONE|DICT|INTERRES
     7    4    5 1    
     8    4   75 1    
     9    5    6 1    
    10    5   35 1    
    11    5   76 1    
    12    6    7 1    
    13    6   77 1    
    14    6   78 1    
    15    7    8 1    
    16    8    9 1    
    17    8   79 1    
    18    8   80 1    
    19    9   10 ar   
    20    9   14 ar   
    21   10   11 ar   
    22   10   81 1    
    23   11   12 ar   
    24   11   71 1    
    25   12   13 ar   
    26   12   82 1    
    27   13   14 ar   
    28   13   15 1    
    29   14   83 1    
    30   15   16 1    
    31   15   84 1    
    32   15   85 1    
    33   16   17 1    
    34   17   18 1    
    35   17   86 1    
    36   17   87 1    
    37   18   19 1    
    38   18   37 1    
    39   18   88 1    
    40   19   20 am   BACKBONE|DICT|INTERRES
    41   19   89 1    
    42   20   21 2    
    43   20   22 1    
    44   22   23 1    
    45   22   24 1    
    46   22   90 1    
    47   23   91 1    
    48   23   92 1    
    49   23   93 1    
    50   24   25 am   BACKBONE|DICT|INTERRES
    51   24   94 1    
    52   25   26 2    
    53   25   27 1    
    54   27   28 1    
    55   27   29 1    
    56   27   95 1    
    57   28   96 1    
    58   28   97 1    
    59   28   98 1    
    60   29   30 am   BACKBONE|DICT|INTERRES
    61   29   99 1    
    62   30   31 2    
    63   30   32 1    
    64   32   33 1    
    65   32   34 1    
    66   32  100 1    
    67   33  101 1    
    68   33  102 1    
    69   33  103 1    
    70   34   35 am   BACKBONE|DICT|INTERRES
    71   34  104 1    
    72   35   36 2    
    73   37   38 2    
    74   37   39 am   BACKBONE|DICT|INTERRES
    75   39   40 1    
    76   39  105 1    
    77   40   41 1    
    78   40   42 1    
    79   40  106 1    
    80   41  107 1    
    81   41  108 1    
    82   41  109 1    
    83   42   43 2    
    84   42   44 am   BACKBONE|DICT|INTERRES
    85   44   45 1    
    86   44  110 1    
    87   45   46 1    
    88   45   47 1    
    89   45  111 1    
    90   46  112 1    
    91   46  113 1    
    92   46  114 1    
    93   47   48 2    
    94   47   49 am   BACKBONE|DICT|INTERRES
    95   49   50 1    
    96   49  115 1    
    97   50   51 1    
    98   50   52 1    
    99   50  116 1    
   100   51  117 1    
   101   51  118 1    
   102   51  119 1    
   103   52   53 2    
   104   52   54 am   BACKBONE|DICT|INTERRES
   105   54   55 1    
   106   54  120 1    
   107   55   56 1    
   108   55   57 1    
   109   55  121 1    
   110   56  122 1    
   111   56  123 1    
   112   56  124 1    
   113   57   58 2    
   114   57   59 am   BACKBONE|DICT|INTERRES
   115   59   60 1    
   116   59  125 1    
   117   60   61 1    
   118   60   62 1    
   119   60  126 1    
   120   61  127 1    
   121   61  128 1    
   122   61  129 1    
   123   62   63 2    
   124   62   64 am   BACKBONE|DICT|INTERRES
   125   64   65 1    
   126   64  130 1    
   127   65   66 1    
   128   65   69 1    
   129   65  131 1    
   130   66   67 am   BACKBONE|DICT|INTERRES
   131   66   68 2    
   132   67  132 1    
   133   67  133 1    
   134   69   70 1    
   135   69  134 1    
   136   69  135 1    
   137   70   71 1    
   138   71  136 1    
   139   71  137 1    
@<TRIPOS>SUBSTRUCTURE
     1 UNK         1 GROUP             0       ****    0 ROOT    
