@<TRIPOS>MOLECULE
3R136
137   139    1
SMALL
USER_CHARGES


@<TRIPOS>ATOM
      1 CA         34.2379   28.4900   -2.7014 C.3       0 UNK        -0.1979 
      2 C          32.8123   28.2451   -2.2306 C.2       0 UNK         0.4864 
      3 O          31.9546   29.1108   -2.4058 O.2       0 UNK        -0.5359 
      4 N          32.5548   27.0758   -1.6289 N.am      1 UNK        -0.4318 
      5 CA         31.2416   26.6676   -1.1244 C.3       1 UNK         0.0824 
      6 C6         31.3495   25.3813   -0.2676 C.3       12 UNK        -0.0944 
      7 S7         29.8499   25.0503    0.7193 S.3       12 UNK        -0.2672 
      8 C8         30.3149   23.4857    1.5233 C.3       12 UNK         0.0333 
      9 C9         30.2142   23.6157    3.0324 C.ar      12 UNK        -0.0807 
     10 C10        31.2930   24.1092    3.7704 C.ar      12 UNK        -0.0894 
     11 C11        31.1926   24.2600    5.1562 C.ar      12 UNK        -0.0804 
     12 C12        29.9980   23.9249    5.8010 C.ar      12 UNK        -0.0824 
     13 C13        28.9119   23.4263    5.0739 C.ar      12 UNK        -0.0762 
     14 C14        29.0361   23.2547    3.6904 C.ar      12 UNK        -0.0782 
     15 C15        27.6197   23.0581    5.7965 C.3       12 UNK         0.0230 
     16 S16        26.1158   23.6370    4.9404 S.3       12 UNK        -0.2608 
     17 C17        26.3053   25.4538    5.0013 C.3       12 UNK        -0.0989 
     18 CA         26.8211   26.0719    3.6678 C.3       5 UNK         0.0716 
     19 N          26.0883   25.6276    2.4710 N.am      5 UNK        -0.4135 
     20 C          24.7875   25.8272    2.2063 C.2       4 UNK         0.5031 
     21 O          24.0116   26.3896    2.9805 O.2       4 UNK        -0.5229 
     22 CA         24.2562   25.3563    0.8360 C.3       4 UNK         0.0329 
     23 CB         23.4684   26.4802    0.1374 C.3       4 UNK        -0.2001 
     24 N          25.3131   24.9066   -0.0741 N.am      4 UNK        -0.4303 
     25 C          25.8018   23.6619   -0.1635 C.2       3 UNK         0.5044 
     26 O          25.4087   22.7257    0.5360 O.2       3 UNK        -0.5152 
     27 CA         26.9575   23.4213   -1.1573 C.3       3 UNK         0.0319 
     28 CB         26.5668   22.4136   -2.2580 C.3       3 UNK        -0.2001 
     29 N          27.5479   24.6504   -1.7159 N.am      3 UNK        -0.4354 
     30 C          27.0453   25.4942   -2.6335 C.2       2 UNK         0.4964 
     31 O          25.9678   25.3195   -3.2014 O.2       2 UNK        -0.5047 
     32 CA         27.8357   26.7893   -2.9200 C.3       2 UNK         0.0288 
     33 CB         26.9301   28.0263   -2.7714 C.3       2 UNK        -0.2113 
     34 N          28.9923   26.9601   -2.0358 N.am      2 UNK        -0.4145 
     35 C          30.2235   26.4896   -2.2716 C.2       1 UNK         0.5006 
     36 O          30.5499   25.8914   -3.2999 O.2       1 UNK        -0.5103 
     37 C          26.9222   27.6142    3.7220 C.2       5 UNK         0.5055 
     38 O          26.7953   28.2113    4.7934 O.2       5 UNK        -0.5220 
     39 N          27.1193   28.2318    2.5481 N.am      6 UNK        -0.4450 
     40 CA         27.2388   29.6772    2.3617 C.3       6 UNK         0.0367 
     41 CB         27.1169   29.9934    0.8614 C.3       6 UNK        -0.1929 
     42 C          28.5676   30.2177    2.9106 C.2       6 UNK         0.5070 
     43 O          29.5719   29.5031    2.9019 O.2       6 UNK        -0.5237 
     44 N          28.5672   31.4991    3.3058 N.am      7 UNK        -0.4739 
     45 CA         29.7217   32.2225    3.8600 C.3       7 UNK         0.0276 
     46 CB         29.2928   33.6479    4.2417 C.3       7 UNK        -0.1927 
     47 C          30.9567   32.2627    2.9407 C.2       7 UNK         0.5013 
     48 O          32.0777   32.3544    3.4417 O.2       7 UNK        -0.5193 
     49 N          30.7373   32.1262    1.6246 N.am      8 UNK        -0.4253 
     50 CA         31.7636   31.9730    0.5886 C.3       8 UNK         0.0242 
     51 CB         31.0778   31.9136   -0.7850 C.3       8 UNK        -0.2000 
     52 C          32.6918   30.7557    0.7838 C.2       8 UNK         0.4948 
     53 O          33.8044   30.7671    0.2563 O.2       8 UNK        -0.5275 
     54 N          32.2534   29.7544    1.5646 N.am      9 UNK        -0.4246 
     55 CA         33.0741   28.6260    2.0119 C.3       9 UNK         0.0261 
     56 CB         32.1613   27.5736    2.6585 C.3       9 UNK        -0.1959 
     57 C          34.1902   29.0225    3.0002 C.2       9 UNK         0.5033 
     58 O          35.1206   28.2378    3.1843 O.2       9 UNK        -0.5390 
     59 N          34.0694   30.2010    3.6358 N.am      10 UNK        -0.4215 
     60 CA         34.9876   30.8145    4.6075 C.3       10 UNK         0.0240 
     61 CB         36.3832   31.0429    3.9895 C.3       10 UNK        -0.1982 
     62 C          35.0720   30.1067    5.9758 C.2       10 UNK         0.4970 
     63 O          35.8216   30.5688    6.8374 O.2       10 UNK        -0.4916 
     64 N          34.2989   29.0329    6.1763 N.am      11 UNK        -0.4279 
     65 CA         34.1970   28.2815    7.4361 C.3       11 UNK         0.1003 
     66 C          33.2962   28.9397    8.5230 C.2       11 UNK         0.5709 
     67 N          32.5792   30.0193    8.2323 N.am      11 UNK        -0.7358 
     68 O          33.2631   28.4719    9.6589 O.2       11 UNK        -0.4999 
     69 C69        33.8325   26.7957    7.1792 C.3       12 UNK        -0.0954 
     70 S70        32.2763   26.5542    6.2572 S.3       12 UNK        -0.2268 
     71 C71        32.3804   24.7654    5.9592 C.3       12 UNK         0.0203 
     72 H72        34.8881   27.6396   -2.4965 H         1 UNK         0.0888 
     73 H73        34.2519   28.6784   -3.7746 H         1 UNK         0.0888 
     74 H74        34.6512   29.3626   -2.1954 H         1 UNK         0.0888 
     75 H75        33.2901   26.3883   -1.5497 H         1 UNK         0.3017 
     76 H76        30.8971   27.4791   -0.4788 H         1 UNK         0.0873 
     77 H77        32.1838   25.4699    0.4304 H         1 UNK         0.0745 
     78 H78        31.5693   24.5132   -0.8931 H         1 UNK         0.0745 
     79 H79        29.6602   22.6906    1.1638 H         1 UNK         0.0705 
     80 H80        31.3283   23.1927    1.2447 H         1 UNK         0.0705 
     81 H81        32.2098   24.3771    3.2641 H         1 UNK         0.1334 
     82 H82        29.9194   24.0492    6.8726 H         1 UNK         0.1417 
     83 H83        28.2034   22.8647    3.1207 H         1 UNK         0.1562 
     84 H84        27.6161   23.4544    6.8132 H         1 UNK         0.0748 
     85 H85        27.5719   21.9724    5.8892 H         1 UNK         0.0748 
     86 H86        26.9762   25.7138    5.8223 H         1 UNK         0.0940 
     87 H87        25.3352   25.8779    5.2662 H         1 UNK         0.0940 
     88 H88        27.8476   25.7326    3.5284 H         1 UNK         0.0703 
     89 H89        26.6338   25.1318    1.7828 H         1 UNK         0.3081 
     90 H90        23.5703   24.5278    1.0258 H         1 UNK         0.0719 
     91 H91        22.6160   26.7977    0.7398 H         1 UNK         0.0809 
     92 H92        24.0888   27.3601   -0.0386 H         1 UNK         0.0809 
     93 H93        23.0739   26.1500   -0.8240 H         1 UNK         0.0809 
     94 H94        25.6774   25.5974   -0.7165 H         1 UNK         0.2990 
     95 H95        27.7558   22.9609   -0.5729 H         1 UNK         0.0690 
     96 H96        27.3943   22.2340   -2.9447 H         1 UNK         0.0788 
     97 H97        25.7112   22.7542   -2.8418 H         1 UNK         0.0788 
     98 H98        26.2934   21.4517   -1.8226 H         1 UNK         0.0788 
     99 H99        28.4329   24.9082   -1.2993 H         1 UNK         0.2993 
    100 H100       28.1756   26.7360   -3.9567 H         1 UNK         0.0949 
    101 H101       27.4766   28.9451   -2.9865 H         1 UNK         0.0767 
    102 H102       26.0901   27.9853   -3.4663 H         1 UNK         0.0767 
    103 H103       26.5168   28.1098   -1.7658 H         1 UNK         0.0767 
    104 H104       28.8193   27.4351   -1.1622 H         1 UNK         0.3013 
    105 H105       27.2501   27.6608    1.7286 H         1 UNK         0.3121 
    106 H106       26.4156   30.1586    2.8939 H         1 UNK         0.0774 
    107 H107       27.9291   29.5482    0.2857 H         1 UNK         0.0815 
    108 H108       26.1744   29.6276    0.4534 H         1 UNK         0.0815 
    109 H109       27.1455   31.0692    0.6835 H         1 UNK         0.0815 
    110 H110       27.7005   32.0163    3.2562 H         1 UNK         0.2987 
    111 H111       30.0235   31.6999    4.7704 H         1 UNK         0.0949 
    112 H112       28.4906   33.6381    4.9798 H         1 UNK         0.0806 
    113 H113       30.1244   34.2020    4.6796 H         1 UNK         0.0806 
    114 H114       28.9466   34.2120    3.3747 H         1 UNK         0.0806 
    115 H115       29.7776   32.0555    1.3211 H         1 UNK         0.3010 
    116 H116       32.3937   32.8640    0.6210 H         1 UNK         0.0829 
    117 H117       30.4181   31.0491   -0.8693 H         1 UNK         0.0813 
    118 H118       31.8156   31.8348   -1.5850 H         1 UNK         0.0813 
    119 H119       30.4884   32.8101   -0.9777 H         1 UNK         0.0813 
    120 H120       31.3171   29.8077    1.9573 H         1 UNK         0.3038 
    121 H121       33.5479   28.1831    1.1335 H         1 UNK         0.0769 
    122 H122       31.3521   27.2789    1.9931 H         1 UNK         0.0811 
    123 H123       31.7062   27.9443    3.5775 H         1 UNK         0.0811 
    124 H124       32.7232   26.6750    2.9132 H         1 UNK         0.0811 
    125 H125       33.2585   30.7752    3.4190 H         1 UNK         0.3204 
    126 H126       34.5642   31.7980    4.8167 H         1 UNK         0.0748 
    127 H127       36.9090   30.1043    3.8128 H         1 UNK         0.0771 
    128 H128       36.3135   31.5731    3.0396 H         1 UNK         0.0771 
    129 H129       37.0103   31.6442    4.6490 H         1 UNK         0.0771 
    130 H130       33.7140   28.7055    5.4227 H         1 UNK         0.2980 
    131 H131       35.1945   28.2715    7.8795 H         1 UNK         0.0545 
    132 H132       32.6001   30.4127    7.3062 H         1 UNK         0.3459 
    133 H133       32.0072   30.4383    8.9483 H         1 UNK         0.3459 
    134 H134       33.7756   26.2414    8.1179 H         1 UNK         0.0616 
    135 H135       34.6369   26.3281    6.6090 H         1 UNK         0.0616 
    136 H136       33.3109   24.5410    5.4352 H         1 UNK         0.0634 
    137 H137       32.4308   24.2428    6.9158 H         1 UNK         0.0634 
@<TRIPOS>BOND
     1    1    2 1    
     2    1   72 1    
     3    1   73 1    
     4    1   74 1    
     5    2    3 2    
     6    2    4 am   BACKBONE|DICT|INTERRES
     7    4    5 1    
     8    4   75 1    
     9    5    6 1    
    10    5   35 1    
    11    5   76 1    
    12    6    7 1    
    13    6   77 1    
    14    6   78 1    
    15    7    8 1    
    16    8    9 1    
    17    8   79 1    
    18    8   80 1    
    19    9   10 ar   
    20    9   14 ar   
    21   10   11 ar   
    22   10   81 1    
    23   11   12 ar   
    24   11   71 1    
    25   12   13 ar   
    26   12   82 1    
    27   13   14 ar   
    28   13   15 1    
    29   14   83 1    
    30   15   16 1    
    31   15   84 1    
    32   15   85 1    
    33   16   17 1    
    34   17   18 1    
    35   17   86 1    
    36   17   87 1    
    37   18   19 1    
    38   18   37 1    
    39   18   88 1    
    40   19   20 am   BACKBONE|DICT|INTERRES
    41   19   89 1    
    42   20   21 2    
    43   20   22 1    
    44   22   23 1    
    45   22   24 1    
    46   22   90 1    
    47   23   91 1    
    48   23   92 1    
    49   23   93 1    
    50   24   25 am   BACKBONE|DICT|INTERRES
    51   24   94 1    
    52   25   26 2    
    53   25   27 1    
    54   27   28 1    
    55   27   29 1    
    56   27   95 1    
    57   28   96 1    
    58   28   97 1    
    59   28   98 1    
    60   29   30 am   BACKBONE|DICT|INTERRES
    61   29   99 1    
    62   30   31 2    
    63   30   32 1    
    64   32   33 1    
    65   32   34 1    
    66   32  100 1    
    67   33  101 1    
    68   33  102 1    
    69   33  103 1    
    70   34   35 am   BACKBONE|DICT|INTERRES
    71   34  104 1    
    72   35   36 2    
    73   37   38 2    
    74   37   39 am   BACKBONE|DICT|INTERRES
    75   39   40 1    
    76   39  105 1    
    77   40   41 1    
    78   40   42 1    
    79   40  106 1    
    80   41  107 1    
    81   41  108 1    
    82   41  109 1    
    83   42   43 2    
    84   42   44 am   BACKBONE|DICT|INTERRES
    85   44   45 1    
    86   44  110 1    
    87   45   46 1    
    88   45   47 1    
    89   45  111 1    
    90   46  112 1    
    91   46  113 1    
    92   46  114 1    
    93   47   48 2    
    94   47   49 am   BACKBONE|DICT|INTERRES
    95   49   50 1    
    96   49  115 1    
    97   50   51 1    
    98   50   52 1    
    99   50  116 1    
   100   51  117 1    
   101   51  118 1    
   102   51  119 1    
   103   52   53 2    
   104   52   54 am   BACKBONE|DICT|INTERRES
   105   54   55 1    
   106   54  120 1    
   107   55   56 1    
   108   55   57 1    
   109   55  121 1    
   110   56  122 1    
   111   56  123 1    
   112   56  124 1    
   113   57   58 2    
   114   57   59 am   BACKBONE|DICT|INTERRES
   115   59   60 1    
   116   59  125 1    
   117   60   61 1    
   118   60   62 1    
   119   60  126 1    
   120   61  127 1    
   121   61  128 1    
   122   61  129 1    
   123   62   63 2    
   124   62   64 am   BACKBONE|DICT|INTERRES
   125   64   65 1    
   126   64  130 1    
   127   65   66 1    
   128   65   69 1    
   129   65  131 1    
   130   66   67 am   BACKBONE|DICT|INTERRES
   131   66   68 2    
   132   67  132 1    
   133   67  133 1    
   134   69   70 1    
   135   69  134 1    
   136   69  135 1    
   137   70   71 1    
   138   71  136 1    
   139   71  137 1    
@<TRIPOS>SUBSTRUCTURE
     1 UNK         1 GROUP             0       ****    0 ROOT    
