@<TRIPOS>MOLECULE
3R136
137   139    1
SMALL
USER_CHARGES


@<TRIPOS>ATOM
      1 CA         28.0311   21.7104    2.8813 C.3       0 UNK        -0.1979 
      2 C          28.3707   21.6605    1.3992 C.2       0 UNK         0.4864 
      3 O          27.8156   20.8374    0.6707 O.2       0 UNK        -0.5359 
      4 N          29.2744   22.5404    0.9473 N.am      1 UNK        -0.4318 
      5 CA         29.6947   22.6722   -0.4551 C.3       1 UNK         0.0824 
      6 C6         31.0373   23.4407   -0.5618 C.3       12 UNK        -0.0944 
      7 S7         32.4897   22.3648   -0.2992 S.3       12 UNK        -0.2672 
      8 C8         32.5582   22.1326    1.5111 C.3       12 UNK         0.0333 
      9 C9         32.5993   23.4355    2.3012 C.ar      12 UNK        -0.0807 
     10 C10        33.5281   24.4340    1.9872 C.ar      12 UNK        -0.0894 
     11 C11        33.5686   25.6324    2.7069 C.ar      12 UNK        -0.0804 
     12 C12        32.6701   25.8124    3.7658 C.ar      12 UNK        -0.0824 
     13 C13        31.7432   24.8215    4.0984 C.ar      12 UNK        -0.0762 
     14 C14        31.7179   23.6311    3.3687 C.ar      12 UNK        -0.0782 
     15 C15        30.7714   25.0447    5.2492 C.3       12 UNK         0.0230 
     16 S16        29.0602   25.2986    4.6770 S.3       12 UNK        -0.2608 
     17 C17        29.2113   26.7896    3.6353 C.3       12 UNK        -0.0989 
     18 CA         28.2537   26.7212    2.4205 C.3       5 UNK         0.0716 
     19 N          26.8297   26.8079    2.7777 N.am      5 UNK        -0.4135 
     20 C          26.1897   27.7951    3.4247 C.2       4 UNK         0.5031 
     21 O          26.7440   28.8259    3.8132 O.2       4 UNK        -0.5229 
     22 CA         24.6760   27.6048    3.6683 C.3       4 UNK         0.0329 
     23 CB         23.9374   28.9370    3.9220 C.3       4 UNK        -0.2001 
     24 N          24.0107   26.8235    2.6165 N.am      4 UNK        -0.4303 
     25 C          23.9143   27.1388    1.3166 C.2       3 UNK         0.5044 
     26 O          24.3030   28.1980    0.8210 O.2       3 UNK        -0.5152 
     27 CA         23.3390   26.0445    0.3999 C.3       3 UNK         0.0319 
     28 CB         22.1198   26.5595   -0.3832 C.3       3 UNK        -0.2001 
     29 N          24.3543   25.5607   -0.5400 N.am      3 UNK        -0.4354 
     30 C          25.5198   25.0018   -0.1862 C.2       2 UNK         0.4964 
     31 O          25.8353   24.7536    0.9838 O.2       2 UNK        -0.5047 
     32 CA         26.5054   24.6887   -1.3201 C.3       2 UNK         0.0288 
     33 CB         26.9164   25.9624   -2.0862 C.3       2 UNK        -0.2113 
     34 N          27.6742   24.0563   -0.7198 N.am      2 UNK        -0.4145 
     35 C          28.6054   23.3237   -1.3389 C.2       1 UNK         0.5006 
     36 O          28.6244   23.1350   -2.5567 O.2       1 UNK        -0.5103 
     37 C          28.6567   27.7022    1.3007 C.2       5 UNK         0.5055 
     38 O          29.2532   27.2649    0.3161 O.2       5 UNK        -0.5220 
     39 N          28.2966   28.9830    1.4506 N.am      6 UNK        -0.4450 
     40 CA         28.3821   30.1088    0.5114 C.3       6 UNK         0.0367 
     41 CB         27.4847   29.8603   -0.7154 C.3       6 UNK        -0.1929 
     42 C          29.7929   30.5369    0.0625 C.2       6 UNK         0.5070 
     43 O          30.0407   31.7418    0.0023 O.2       6 UNK        -0.5237 
     44 N          30.6687   29.5723   -0.2555 N.am      7 UNK        -0.4739 
     45 CA         31.9748   29.7066   -0.9225 C.3       7 UNK         0.0276 
     46 CB         32.7042   28.3547   -0.8625 C.3       7 UNK        -0.1927 
     47 C          32.8806   30.8384   -0.4044 C.2       7 UNK         0.5013 
     48 O          33.4603   31.5714   -1.2071 O.2       7 UNK        -0.5193 
     49 N          32.9335   30.9878    0.9200 N.am      8 UNK        -0.4253 
     50 CA         33.4514   32.1587    1.6221 C.3       8 UNK         0.0242 
     51 CB         34.9636   32.0174    1.8836 C.3       8 UNK        -0.2000 
     52 C          32.6115   32.3075    2.8944 C.2       8 UNK         0.4948 
     53 O          33.1516   32.2996    4.0029 O.2       8 UNK        -0.5275 
     54 N          31.2814   32.3279    2.7043 N.am      9 UNK        -0.4246 
     55 CA         30.2570   32.0845    3.7244 C.3       9 UNK         0.0261 
     56 CB         30.1878   33.2492    4.7393 C.3       9 UNK        -0.1959 
     57 C          30.4792   30.6910    4.3449 C.2       9 UNK         0.5033 
     58 O          30.5637   29.7187    3.5945 O.2       9 UNK        -0.5390 
     59 N          30.6305   30.6182    5.6725 N.am      10 UNK        -0.4215 
     60 CA         30.9764   29.3986    6.4077 C.3       10 UNK         0.0240 
     61 CB         30.6110   29.5955    7.8890 C.3       10 UNK        -0.1982 
     62 C          32.4513   28.9654    6.2632 C.2       10 UNK         0.4970 
     63 O          32.7927   27.8907    6.7571 O.2       10 UNK        -0.4916 
     64 N          33.2974   29.7902    5.6263 N.am      11 UNK        -0.4279 
     65 CA         34.7429   29.5744    5.4249 C.3       11 UNK         0.1003 
     66 C          35.5958   29.6304    6.7299 C.2       11 UNK         0.5709 
     67 N          35.0859   30.1692    7.8317 N.am      11 UNK        -0.7358 
     68 O          36.7517   29.2128    6.7420 O.2       11 UNK        -0.4999 
     69 C69        35.0725   28.3322    4.5443 C.3       12 UNK        -0.0954 
     70 S70        34.2745   28.3825    2.9045 S.3       12 UNK        -0.2268 
     71 C71        34.6023   26.6881    2.3074 C.3       12 UNK         0.0203 
     72 H72        28.5281   22.5367    3.3882 H         1 UNK         0.0888 
     73 H73        26.9566   21.8348    3.0143 H         1 UNK         0.0888 
     74 H74        28.3305   20.7823    3.3674 H         1 UNK         0.0888 
     75 H75        29.7048   23.1883    1.5906 H         1 UNK         0.3017 
     76 H76        29.8385   21.6674   -0.8591 H         1 UNK         0.0873 
     77 H77        31.1656   23.8629   -1.5609 H         1 UNK         0.0745 
     78 H78        31.0664   24.2953    0.1170 H         1 UNK         0.0745 
     79 H79        31.7126   21.5152    1.8165 H         1 UNK         0.0705 
     80 H80        33.4525   21.5559    1.7504 H         1 UNK         0.0705 
     81 H81        34.2191   24.2782    1.1697 H         1 UNK         0.1334 
     82 H82        32.6758   26.7275    4.3375 H         1 UNK         0.1417 
     83 H83        31.0097   22.8597    3.6380 H         1 UNK         0.1562 
     84 H84        31.0730   25.9016    5.8535 H         1 UNK         0.0748 
     85 H85        30.7968   24.1805    5.9144 H         1 UNK         0.0748 
     86 H86        30.2406   26.8982    3.2941 H         1 UNK         0.0940 
     87 H87        29.0136   27.6681    4.2490 H         1 UNK         0.0940 
     88 H88        28.3685   25.7300    1.9787 H         1 UNK         0.0703 
     89 H89        26.2721   26.0346    2.4281 H         1 UNK         0.3081 
     90 H90        24.5974   27.0107    4.5799 H         1 UNK         0.0719 
     91 H91        24.0360   29.6226    3.0799 H         1 UNK         0.0809 
     92 H92        22.8746   28.7745    4.1007 H         1 UNK         0.0809 
     93 H93        24.3379   29.4448    4.8003 H         1 UNK         0.0809 
     94 H94        23.6762   25.9133    2.9036 H         1 UNK         0.2990 
     95 H95        23.0175   25.1974    1.0098 H         1 UNK         0.0690 
     96 H96        21.6762   25.7714   -0.9920 H         1 UNK         0.0788 
     97 H97        22.3828   27.3870   -1.0436 H         1 UNK         0.0788 
     98 H98        21.3449   26.9186    0.2955 H         1 UNK         0.0788 
     99 H99        24.1857   25.7515   -1.5170 H         1 UNK         0.2993 
    100 H100       26.0304   23.9801   -2.0017 H         1 UNK         0.0949 
    101 H101       26.0649   26.4152   -2.5947 H         1 UNK         0.0767 
    102 H102       27.3314   26.7128   -1.4147 H         1 UNK         0.0767 
    103 H103       27.6653   25.7491   -2.8488 H         1 UNK         0.0767 
    104 H104       27.6798   24.1074    0.2909 H         1 UNK         0.3013 
    105 H105       27.8379   29.1972    2.3341 H         1 UNK         0.3121 
    106 H106       27.9614   30.9576    1.0528 H         1 UNK         0.0774 
    107 H107       27.4351   30.7479   -1.3473 H         1 UNK         0.0815 
    108 H108       27.8610   29.0451   -1.3335 H         1 UNK         0.0815 
    109 H109       26.4645   29.6145   -0.4194 H         1 UNK         0.0815 
    110 H110       30.3258   28.6198   -0.1363 H         1 UNK         0.2987 
    111 H111       31.7653   29.9296   -1.9704 H         1 UNK         0.0949 
    112 H112       32.1479   27.5805   -1.3914 H         1 UNK         0.0806 
    113 H113       33.6917   28.4162   -1.3221 H         1 UNK         0.0806 
    114 H114       32.8397   28.0204    0.1662 H         1 UNK         0.0806 
    115 H115       32.4221   30.3266    1.4923 H         1 UNK         0.3010 
    116 H116       33.2818   33.0533    1.0187 H         1 UNK         0.0829 
    117 H117       35.5196   31.9248    0.9508 H         1 UNK         0.0813 
    118 H118       35.3506   32.8916    2.4081 H         1 UNK         0.0813 
    119 H119       35.1895   31.1443    2.4943 H         1 UNK         0.0813 
    120 H120       30.9465   32.2909    1.7453 H         1 UNK         0.3038 
    121 H121       29.3003   32.0379    3.2021 H         1 UNK         0.0769 
    122 H122       31.1050   33.3560    5.3193 H         1 UNK         0.0811 
    123 H123       29.3619   33.1148    5.4391 H         1 UNK         0.0811 
    124 H124       30.0158   34.1965    4.2283 H         1 UNK         0.0811 
    125 H125       30.5704   31.4718    6.2087 H         1 UNK         0.3204 
    126 H126       30.3684   28.5801    6.0177 H         1 UNK         0.0748 
    127 H127       29.5522   29.8265    8.0090 H         1 UNK         0.0771 
    128 H128       30.8077   28.6905    8.4657 H         1 UNK         0.0771 
    129 H129       31.1859   30.4030    8.3441 H         1 UNK         0.0771 
    130 H130       32.9464   30.6569    5.2343 H         1 UNK         0.2980 
    131 H131       35.0748   30.4484    4.8647 H         1 UNK         0.0545 
    132 H132       35.6492   30.2114    8.6662 H         1 UNK         0.3459 
    133 H133       34.1469   30.5320    7.8354 H         1 UNK         0.3459 
    134 H134       36.1474   28.2676    4.3679 H         1 UNK         0.0616 
    135 H135       34.7975   27.4106    5.0580 H         1 UNK         0.0616 
    136 H136       34.6576   26.7324    1.2189 H         1 UNK         0.0634 
    137 H137       35.5878   26.3693    2.6492 H         1 UNK         0.0634 
@<TRIPOS>BOND
     1    1    2 1    
     2    1   72 1    
     3    1   73 1    
     4    1   74 1    
     5    2    3 2    
     6    2    4 am   BACKBONE|DICT|INTERRES
     7    4    5 1    
     8    4   75 1    
     9    5    6 1    
    10    5   35 1    
    11    5   76 1    
    12    6    7 1    
    13    6   77 1    
    14    6   78 1    
    15    7    8 1    
    16    8    9 1    
    17    8   79 1    
    18    8   80 1    
    19    9   10 ar   
    20    9   14 ar   
    21   10   11 ar   
    22   10   81 1    
    23   11   12 ar   
    24   11   71 1    
    25   12   13 ar   
    26   12   82 1    
    27   13   14 ar   
    28   13   15 1    
    29   14   83 1    
    30   15   16 1    
    31   15   84 1    
    32   15   85 1    
    33   16   17 1    
    34   17   18 1    
    35   17   86 1    
    36   17   87 1    
    37   18   19 1    
    38   18   37 1    
    39   18   88 1    
    40   19   20 am   BACKBONE|DICT|INTERRES
    41   19   89 1    
    42   20   21 2    
    43   20   22 1    
    44   22   23 1    
    45   22   24 1    
    46   22   90 1    
    47   23   91 1    
    48   23   92 1    
    49   23   93 1    
    50   24   25 am   BACKBONE|DICT|INTERRES
    51   24   94 1    
    52   25   26 2    
    53   25   27 1    
    54   27   28 1    
    55   27   29 1    
    56   27   95 1    
    57   28   96 1    
    58   28   97 1    
    59   28   98 1    
    60   29   30 am   BACKBONE|DICT|INTERRES
    61   29   99 1    
    62   30   31 2    
    63   30   32 1    
    64   32   33 1    
    65   32   34 1    
    66   32  100 1    
    67   33  101 1    
    68   33  102 1    
    69   33  103 1    
    70   34   35 am   BACKBONE|DICT|INTERRES
    71   34  104 1    
    72   35   36 2    
    73   37   38 2    
    74   37   39 am   BACKBONE|DICT|INTERRES
    75   39   40 1    
    76   39  105 1    
    77   40   41 1    
    78   40   42 1    
    79   40  106 1    
    80   41  107 1    
    81   41  108 1    
    82   41  109 1    
    83   42   43 2    
    84   42   44 am   BACKBONE|DICT|INTERRES
    85   44   45 1    
    86   44  110 1    
    87   45   46 1    
    88   45   47 1    
    89   45  111 1    
    90   46  112 1    
    91   46  113 1    
    92   46  114 1    
    93   47   48 2    
    94   47   49 am   BACKBONE|DICT|INTERRES
    95   49   50 1    
    96   49  115 1    
    97   50   51 1    
    98   50   52 1    
    99   50  116 1    
   100   51  117 1    
   101   51  118 1    
   102   51  119 1    
   103   52   53 2    
   104   52   54 am   BACKBONE|DICT|INTERRES
   105   54   55 1    
   106   54  120 1    
   107   55   56 1    
   108   55   57 1    
   109   55  121 1    
   110   56  122 1    
   111   56  123 1    
   112   56  124 1    
   113   57   58 2    
   114   57   59 am   BACKBONE|DICT|INTERRES
   115   59   60 1    
   116   59  125 1    
   117   60   61 1    
   118   60   62 1    
   119   60  126 1    
   120   61  127 1    
   121   61  128 1    
   122   61  129 1    
   123   62   63 2    
   124   62   64 am   BACKBONE|DICT|INTERRES
   125   64   65 1    
   126   64  130 1    
   127   65   66 1    
   128   65   69 1    
   129   65  131 1    
   130   66   67 am   BACKBONE|DICT|INTERRES
   131   66   68 2    
   132   67  132 1    
   133   67  133 1    
   134   69   70 1    
   135   69  134 1    
   136   69  135 1    
   137   70   71 1    
   138   71  136 1    
   139   71  137 1    
@<TRIPOS>SUBSTRUCTURE
     1 UNK         1 GROUP             0       ****    0 ROOT    
