@<TRIPOS>MOLECULE
3R136
137   139    1
SMALL
USER_CHARGES


@<TRIPOS>ATOM
      1 CA         25.8273   21.3983   -2.5055 C.3       0 UNK        -0.1979 
      2 C          26.9204   21.9014   -1.5740 C.2       0 UNK         0.4864 
      3 O          26.6608   22.7932   -0.7664 O.2       0 UNK        -0.5359 
      4 N          28.1264   21.3223   -1.6806 N.am      1 UNK        -0.4318 
      5 CA         29.3605   21.6754   -0.9615 C.3       1 UNK         0.0824 
      6 C6         29.1683   21.8057    0.5754 C.3       12 UNK        -0.0944 
      7 S7         30.5676   21.1448    1.5441 S.3       12 UNK        -0.2672 
      8 C8         31.2349   22.6310    2.3750 C.3       12 UNK         0.0333 
      9 C9         30.3616   23.2701    3.4608 C.ar      12 UNK        -0.0807 
     10 C10        30.9210   24.2925    4.2336 C.ar      12 UNK        -0.0894 
     11 C11        30.1654   24.9576    5.2037 C.ar      12 UNK        -0.0804 
     12 C12        28.8305   24.5993    5.4060 C.ar      12 UNK        -0.0824 
     13 C13        28.2503   23.5896    4.6343 C.ar      12 UNK        -0.0762 
     14 C14        29.0263   22.9110    3.6906 C.ar      12 UNK        -0.0782 
     15 C15        26.7745   23.2488    4.7798 C.3       12 UNK         0.0230 
     16 S16        25.8300   23.7597    3.3039 S.3       12 UNK        -0.2608 
     17 C17        25.6231   25.5565    3.5654 C.3       12 UNK        -0.0989 
     18 CA         26.7921   26.4223    3.0151 C.3       5 UNK         0.0716 
     19 N          27.1334   26.1533    1.6150 N.am      5 UNK        -0.4135 
     20 C          26.4302   26.4527    0.5130 C.2       4 UNK         0.5031 
     21 O          25.2776   26.8881    0.5317 O.2       4 UNK        -0.5229 
     22 CA         27.1738   26.2875   -0.8366 C.3       4 UNK         0.0329 
     23 CB         26.7201   27.3258   -1.8847 C.3       4 UNK        -0.2001 
     24 N          28.6431   26.2904   -0.7050 N.am      4 UNK        -0.4303 
     25 C          29.3926   27.2687   -0.1667 C.2       3 UNK         0.5044 
     26 O          28.9316   28.3530    0.1853 O.2       3 UNK        -0.5152 
     27 CA         30.8645   26.9670    0.1622 C.3       3 UNK         0.0319 
     28 CB         31.0428   26.9603    1.6904 C.3       3 UNK        -0.2001 
     29 N          31.3266   25.6827   -0.3642 N.am      3 UNK        -0.4354 
     30 C          31.8500   25.5054   -1.5836 C.2       2 UNK         0.4964 
     31 O          32.0318   26.4152   -2.3927 O.2       2 UNK        -0.5047 
     32 CA         32.2261   24.0630   -1.9709 C.3       2 UNK         0.0288 
     33 CB         33.6891   23.7769   -1.5935 C.3       2 UNK        -0.2113 
     34 N          31.3663   23.0211   -1.3902 N.am      2 UNK        -0.4145 
     35 C          30.0413   22.9196   -1.5725 C.2       1 UNK         0.5006 
     36 O          29.3780   23.7633   -2.1804 O.2       1 UNK        -0.5103 
     37 C          26.6162   27.9289    3.3357 C.2       5 UNK         0.5055 
     38 O          25.9673   28.2565    4.3318 O.2       5 UNK        -0.5220 
     39 N          27.1908   28.8282    2.5207 N.am      6 UNK        -0.4450 
     40 CA         27.1592   30.2712    2.7484 C.3       6 UNK         0.0367 
     41 CB         27.2552   31.0108    1.4042 C.3       6 UNK        -0.1929 
     42 C          28.3125   30.6668    3.6777 C.2       6 UNK         0.5070 
     43 O          29.4754   30.4618    3.3261 O.2       6 UNK        -0.5237 
     44 N          27.9763   31.2601    4.8307 N.am      7 UNK        -0.4739 
     45 CA         28.9226   31.6674    5.8780 C.3       7 UNK         0.0276 
     46 CB         28.1381   32.2085    7.0840 C.3       7 UNK        -0.1927 
     47 C          29.9809   32.6916    5.4240 C.2       7 UNK         0.5013 
     48 O          31.0716   32.7263    5.9929 O.2       7 UNK        -0.5193 
     49 N          29.6390   33.4970    4.4100 N.am      8 UNK        -0.4253 
     50 CA         30.5164   34.4900    3.7893 C.3       8 UNK         0.0242 
     51 CB         29.6426   35.5977    3.1750 C.3       8 UNK        -0.2000 
     52 C          31.4669   33.9025    2.7266 C.2       8 UNK         0.4948 
     53 O          32.3490   34.6306    2.2671 O.2       8 UNK        -0.5275 
     54 N          31.2683   32.6374    2.3257 N.am      9 UNK        -0.4246 
     55 CA         32.0751   31.9449    1.3192 C.3       9 UNK         0.0261 
     56 CB         31.1448   31.0954    0.4280 C.3       9 UNK        -0.1959 
     57 C          33.2015   31.1366    1.9921 C.2       9 UNK         0.5033 
     58 O          33.7924   31.5990    2.9717 O.2       9 UNK        -0.5390 
     59 N          33.4920   29.9401    1.4598 N.am      10 UNK        -0.4215 
     60 CA         34.5791   29.0475    1.8836 C.3       10 UNK         0.0240 
     61 CB         34.7346   27.9077    0.8600 C.3       10 UNK        -0.1982 
     62 C          34.4846   28.5110    3.3285 C.2       10 UNK         0.4970 
     63 O          35.4495   27.9035    3.7949 O.2       10 UNK        -0.4916 
     64 N          33.3681   28.7653    4.0254 N.am      11 UNK        -0.4279 
     65 CA         33.2437   28.5953    5.4820 C.3       11 UNK         0.1003 
     66 C          34.1539   29.5546    6.3058 C.2       11 UNK         0.5709 
     67 N          34.5994   30.6815    5.7587 N.am      11 UNK        -0.7358 
     68 O          34.4632   29.2654    7.4592 O.2       11 UNK        -0.4999 
     69 C69        31.7768   28.7250    5.9706 C.3       12 UNK        -0.0954 
     70 S70        30.6041   27.6537    5.0836 S.3       12 UNK        -0.2268 
     71 C71        30.7847   26.0955    5.9957 C.3       12 UNK         0.0203 
     72 H72        26.1798   20.5985   -3.1566 H         1 UNK         0.0888 
     73 H73        24.9867   21.0179   -1.9256 H         1 UNK         0.0888 
     74 H74        25.4676   22.2131   -3.1333 H         1 UNK         0.0888 
     75 H75        28.2470   20.6056   -2.3828 H         1 UNK         0.3017 
     76 H76        30.0245   20.8310   -1.1547 H         1 UNK         0.0873 
     77 H77        28.9450   22.8356    0.8615 H         1 UNK         0.0745 
     78 H78        28.2993   21.2256    0.8901 H         1 UNK         0.0745 
     79 H79        31.4638   23.3823    1.6196 H         1 UNK         0.0705 
     80 H80        32.1896   22.3507    2.8228 H         1 UNK         0.0705 
     81 H81        31.9467   24.5921    4.0644 H         1 UNK         0.1334 
     82 H82        28.2361   25.1320    6.1359 H         1 UNK         0.1417 
     83 H83        28.5556   22.1261    3.1194 H         1 UNK         0.1562 
     84 H84        26.3466   23.7054    5.6736 H         1 UNK         0.0748 
     85 H85        26.6699   22.1704    4.9079 H         1 UNK         0.0748 
     86 H86        25.4836   25.7299    4.6340 H         1 UNK         0.0940 
     87 H87        24.6867   25.8557    3.0914 H         1 UNK         0.0940 
     88 H88        27.6886   26.1470    3.5661 H         1 UNK         0.0703 
     89 H89        28.0535   25.7678    1.4718 H         1 UNK         0.3081 
     90 H90        26.9047   25.3031   -1.2170 H         1 UNK         0.0719 
     91 H91        27.2521   27.1956   -2.8269 H         1 UNK         0.0809 
     92 H92        26.8870   28.3476   -1.5422 H         1 UNK         0.0809 
     93 H93        25.6555   27.2258   -2.0988 H         1 UNK         0.0809 
     94 H94        29.1011   25.4421   -1.0223 H         1 UNK         0.2990 
     95 H95        31.4714   27.7732   -0.2544 H         1 UNK         0.0690 
     96 H96        32.0489   26.6744    1.9923 H         1 UNK         0.0788 
     97 H97        30.3508   26.2715    2.1760 H         1 UNK         0.0788 
     98 H98        30.8508   27.9510    2.1052 H         1 UNK         0.0788 
     99 H99        31.2224   24.8777    0.2334 H         1 UNK         0.2993 
    100 H100       32.1327   23.9912   -3.0568 H         1 UNK         0.0949 
    101 H101       33.8390   23.7948   -0.5131 H         1 UNK         0.0767 
    102 H102       34.0119   22.8030   -1.9622 H         1 UNK         0.0767 
    103 H103       34.3578   24.5221   -2.0273 H         1 UNK         0.0767 
    104 H104       31.8358   22.2912   -0.8723 H         1 UNK         0.3013 
    105 H105       27.7612   28.5174    1.7385 H         1 UNK         0.3121 
    106 H106       26.2081   30.5466    3.2095 H         1 UNK         0.0774 
    107 H107       27.2034   32.0907    1.5474 H         1 UNK         0.0815 
    108 H108       28.1909   30.7961    0.8888 H         1 UNK         0.0815 
    109 H109       26.4385   30.7299    0.7391 H         1 UNK         0.0815 
    110 H110       26.9956   31.3866    5.0389 H         1 UNK         0.2987 
    111 H111       29.4535   30.7701    6.1981 H         1 UNK         0.0949 
    112 H112       27.4567   31.4577    7.4848 H         1 UNK         0.0806 
    113 H113       28.8130   32.4933    7.8926 H         1 UNK         0.0806 
    114 H114       27.5525   33.0908    6.8227 H         1 UNK         0.0806 
    115 H115       28.7173   33.3896    4.0125 H         1 UNK         0.3010 
    116 H116       31.1404   34.9404    4.5645 H         1 UNK         0.0829 
    117 H117       29.0070   36.0657    3.9271 H         1 UNK         0.0813 
    118 H118       30.2582   36.3864    2.7399 H         1 UNK         0.0813 
    119 H119       28.9998   35.2126    2.3824 H         1 UNK         0.0813 
    120 H120       30.5679   32.0707    2.7945 H         1 UNK         0.3038 
    121 H121       32.5622   32.6778    0.6728 H         1 UNK         0.0769 
    122 H122       30.3341   31.7009    0.0227 H         1 UNK         0.0811 
    123 H123       30.6927   30.2708    0.9797 H         1 UNK         0.0811 
    124 H124       31.6752   30.6767   -0.4278 H         1 UNK         0.0811 
    125 H125       32.9523   29.6392    0.6622 H         1 UNK         0.3204 
    126 H126       35.4967   29.6387    1.8515 H         1 UNK         0.0748 
    127 H127       35.5498   27.2378    1.1377 H         1 UNK         0.0771 
    128 H128       33.8349   27.3020    0.7737 H         1 UNK         0.0771 
    129 H129       34.9679   28.2968   -0.1312 H         1 UNK         0.0771 
    130 H130       32.6174   29.2674    3.5767 H         1 UNK         0.2980 
    131 H131       33.5791   27.5826    5.7123 H         1 UNK         0.0545 
    132 H132       34.3272   30.9457    4.8172 H         1 UNK         0.3459 
    133 H133       35.1869   31.2937    6.3011 H         1 UNK         0.3459 
    134 H134       31.7011   28.5142    7.0391 H         1 UNK         0.0616 
    135 H135       31.4413   29.7536    5.8370 H         1 UNK         0.0616 
    136 H136       30.3129   26.1886    6.9750 H         1 UNK         0.0634 
    137 H137       31.8412   25.8903    6.1738 H         1 UNK         0.0634 
@<TRIPOS>BOND
     1    1    2 1    
     2    1   72 1    
     3    1   73 1    
     4    1   74 1    
     5    2    3 2    
     6    2    4 am   BACKBONE|DICT|INTERRES
     7    4    5 1    
     8    4   75 1    
     9    5    6 1    
    10    5   35 1    
    11    5   76 1    
    12    6    7 1    
    13    6   77 1    
    14    6   78 1    
    15    7    8 1    
    16    8    9 1    
    17    8   79 1    
    18    8   80 1    
    19    9   10 ar   
    20    9   14 ar   
    21   10   11 ar   
    22   10   81 1    
    23   11   12 ar   
    24   11   71 1    
    25   12   13 ar   
    26   12   82 1    
    27   13   14 ar   
    28   13   15 1    
    29   14   83 1    
    30   15   16 1    
    31   15   84 1    
    32   15   85 1    
    33   16   17 1    
    34   17   18 1    
    35   17   86 1    
    36   17   87 1    
    37   18   19 1    
    38   18   37 1    
    39   18   88 1    
    40   19   20 am   BACKBONE|DICT|INTERRES
    41   19   89 1    
    42   20   21 2    
    43   20   22 1    
    44   22   23 1    
    45   22   24 1    
    46   22   90 1    
    47   23   91 1    
    48   23   92 1    
    49   23   93 1    
    50   24   25 am   BACKBONE|DICT|INTERRES
    51   24   94 1    
    52   25   26 2    
    53   25   27 1    
    54   27   28 1    
    55   27   29 1    
    56   27   95 1    
    57   28   96 1    
    58   28   97 1    
    59   28   98 1    
    60   29   30 am   BACKBONE|DICT|INTERRES
    61   29   99 1    
    62   30   31 2    
    63   30   32 1    
    64   32   33 1    
    65   32   34 1    
    66   32  100 1    
    67   33  101 1    
    68   33  102 1    
    69   33  103 1    
    70   34   35 am   BACKBONE|DICT|INTERRES
    71   34  104 1    
    72   35   36 2    
    73   37   38 2    
    74   37   39 am   BACKBONE|DICT|INTERRES
    75   39   40 1    
    76   39  105 1    
    77   40   41 1    
    78   40   42 1    
    79   40  106 1    
    80   41  107 1    
    81   41  108 1    
    82   41  109 1    
    83   42   43 2    
    84   42   44 am   BACKBONE|DICT|INTERRES
    85   44   45 1    
    86   44  110 1    
    87   45   46 1    
    88   45   47 1    
    89   45  111 1    
    90   46  112 1    
    91   46  113 1    
    92   46  114 1    
    93   47   48 2    
    94   47   49 am   BACKBONE|DICT|INTERRES
    95   49   50 1    
    96   49  115 1    
    97   50   51 1    
    98   50   52 1    
    99   50  116 1    
   100   51  117 1    
   101   51  118 1    
   102   51  119 1    
   103   52   53 2    
   104   52   54 am   BACKBONE|DICT|INTERRES
   105   54   55 1    
   106   54  120 1    
   107   55   56 1    
   108   55   57 1    
   109   55  121 1    
   110   56  122 1    
   111   56  123 1    
   112   56  124 1    
   113   57   58 2    
   114   57   59 am   BACKBONE|DICT|INTERRES
   115   59   60 1    
   116   59  125 1    
   117   60   61 1    
   118   60   62 1    
   119   60  126 1    
   120   61  127 1    
   121   61  128 1    
   122   61  129 1    
   123   62   63 2    
   124   62   64 am   BACKBONE|DICT|INTERRES
   125   64   65 1    
   126   64  130 1    
   127   65   66 1    
   128   65   69 1    
   129   65  131 1    
   130   66   67 am   BACKBONE|DICT|INTERRES
   131   66   68 2    
   132   67  132 1    
   133   67  133 1    
   134   69   70 1    
   135   69  134 1    
   136   69  135 1    
   137   70   71 1    
   138   71  136 1    
   139   71  137 1    
@<TRIPOS>SUBSTRUCTURE
     1 UNK         1 GROUP             0       ****    0 ROOT    
