@<TRIPOS>MOLECULE
3R136
137   139    1
SMALL
USER_CHARGES


@<TRIPOS>ATOM
      1 CA         29.9034   25.1630    5.0829 C.3       0 UNK        -0.1979 
      2 C          28.8514   24.4767    4.2243 C.2       0 UNK         0.4864 
      3 O          28.1129   23.6263    4.7216 O.2       0 UNK        -0.5359 
      4 N          28.7819   24.8464    2.9429 N.am      1 UNK        -0.4318 
      5 CA         27.8622   24.3138    1.9367 C.3       1 UNK         0.0824 
      6 C6         28.6295   23.5681    0.8146 C.3       12 UNK        -0.0944 
      7 S7         29.3121   21.9373    1.2640 S.3       12 UNK        -0.2672 
      8 C8         30.9276   22.2857    2.0504 C.3       12 UNK         0.0333 
      9 C9         31.8089   23.3362    1.3731 C.ar      12 UNK        -0.0807 
     10 C10        32.5833   24.1746    2.1789 C.ar      12 UNK        -0.0894 
     11 C11        33.4159   25.1453    1.6174 C.ar      12 UNK        -0.0804 
     12 C12        33.4621   25.2885    0.2270 C.ar      12 UNK        -0.0824 
     13 C13        32.6982   24.4548   -0.5974 C.ar      12 UNK        -0.0762 
     14 C14        31.8939   23.4643   -0.0194 C.ar      12 UNK        -0.0782 
     15 C15        32.7605   24.6100   -2.1133 C.3       12 UNK         0.0230 
     16 S16        31.8730   26.0900   -2.7090 S.3       12 UNK        -0.2608 
     17 C17        30.1465   25.6635   -2.2992 C.3       12 UNK        -0.0989 
     18 CA         29.1362   26.8431   -2.3822 C.3       5 UNK         0.0716 
     19 N          27.7633   26.3482   -2.4001 N.am      5 UNK        -0.4135 
     20 C          27.0643   26.0003   -3.4820 C.2       4 UNK         0.5031 
     21 O          27.4989   26.0976   -4.6308 O.2       4 UNK        -0.5229 
     22 CA         25.6537   25.4251   -3.2710 C.3       4 UNK         0.0329 
     23 CB         25.6895   23.8890   -3.3564 C.3       4 UNK        -0.2001 
     24 N          25.0252   25.8143   -1.9998 N.am      4 UNK        -0.4303 
     25 C          23.7551   26.2342   -1.8894 C.2       3 UNK         0.5044 
     26 O          23.0213   26.4436   -2.8569 O.2       3 UNK        -0.5152 
     27 CA         23.1625   26.4178   -0.4774 C.3       3 UNK         0.0319 
     28 CB         22.2506   25.2297   -0.1276 C.3       3 UNK        -0.2001 
     29 N          24.1613   26.5685    0.5809 N.am      3 UNK        -0.4354 
     30 C          24.8461   27.6926    0.8286 C.2       2 UNK         0.4964 
     31 O          24.6737   28.7443    0.2120 O.2       2 UNK        -0.5047 
     32 CA         25.8941   27.6474    1.9603 C.3       2 UNK         0.0288 
     33 CB         25.2851   28.2109    3.2554 C.3       2 UNK        -0.2113 
     34 N          26.4908   26.3343    2.2548 N.am      2 UNK        -0.4145 
     35 C          27.0634   25.5050    1.3686 C.2       1 UNK         0.5006 
     36 O          26.9930   25.6712    0.1497 O.2       1 UNK        -0.5103 
     37 C          29.2359   27.8814   -1.2436 C.2       5 UNK         0.5055 
     38 O          28.2490   28.5599   -0.9451 O.2       5 UNK        -0.5220 
     39 N          30.4215   28.0155   -0.6420 N.am      6 UNK        -0.4450 
     40 CA         30.6949   28.9083    0.4802 C.3       6 UNK         0.0367 
     41 CB         32.2159   29.0110    0.6716 C.3       6 UNK        -0.1929 
     42 C          30.0129   28.4307    1.7727 C.2       6 UNK         0.5070 
     43 O          29.9603   27.2273    2.0381 O.2       6 UNK        -0.5237 
     44 N          29.5307   29.3943    2.5646 N.am      7 UNK        -0.4739 
     45 CA         29.0538   29.1855    3.9317 C.3       7 UNK         0.0276 
     46 CB         28.1162   30.3453    4.3059 C.3       7 UNK        -0.1927 
     47 C          30.2431   29.1320    4.9022 C.2       7 UNK         0.5013 
     48 O          31.3121   29.6528    4.5789 O.2       7 UNK        -0.5193 
     49 N          30.0303   28.5652    6.0983 N.am      8 UNK        -0.4253 
     50 CA         31.0587   28.3642    7.1317 C.3       8 UNK         0.0242 
     51 CB         30.4230   27.7115    8.3696 C.3       8 UNK        -0.2000 
     52 C          31.8323   29.6355    7.5341 C.2       8 UNK         0.4948 
     53 O          33.0344   29.5578    7.7896 O.2       8 UNK        -0.5275 
     54 N          31.1424   30.7849    7.5330 N.am      9 UNK        -0.4246 
     55 CA         31.7208   32.1090    7.7760 C.3       9 UNK         0.0261 
     56 CB         30.5846   33.1250    7.9775 C.3       9 UNK        -0.1959 
     57 C          32.6770   32.5870    6.6652 C.2       9 UNK         0.5033 
     58 O          33.5643   33.3916    6.9530 O.2       9 UNK        -0.5390 
     59 N          32.4869   32.0997    5.4309 N.am      10 UNK        -0.4215 
     60 CA         33.3642   32.3631    4.2899 C.3       10 UNK         0.0240 
     61 CB         32.5348   32.4114    2.9958 C.3       10 UNK        -0.1982 
     62 C          34.4833   31.3141    4.1961 C.2       10 UNK         0.4970 
     63 O          35.6073   31.6766    3.8463 O.2       10 UNK        -0.4916 
     64 N          34.1728   30.0503    4.5230 N.am      11 UNK        -0.4279 
     65 CA         35.1488   28.9541    4.6373 C.3       11 UNK         0.1003 
     66 C          36.2162   29.1997    5.7397 C.2       11 UNK         0.5709 
     67 N          35.8261   29.6570    6.9239 N.am      11 UNK        -0.7358 
     68 O          37.4033   28.9736    5.5171 O.2       11 UNK        -0.4999 
     69 C69        34.4759   27.5755    4.8601 C.3       12 UNK        -0.0954 
     70 S70        33.2848   27.1141    3.5617 S.3       12 UNK        -0.2268 
     71 C71        34.2858   26.0027    2.5260 C.3       12 UNK         0.0203 
     72 H72        29.4319   25.6517    5.9339 H         1 UNK         0.0888 
     73 H73        30.4609   25.9132    4.5211 H         1 UNK         0.0888 
     74 H74        30.6147   24.4296    5.4616 H         1 UNK         0.0888 
     75 H75        29.3688   25.6143    2.6101 H         1 UNK         0.3017 
     76 H76        27.1383   23.6306    2.3851 H         1 UNK         0.0873 
     77 H77        27.9739   23.3721   -0.0362 H         1 UNK         0.0745 
     78 H78        29.4189   24.2104    0.4391 H         1 UNK         0.0745 
     79 H79        30.7352   22.5707    3.0848 H         1 UNK         0.0705 
     80 H80        31.4887   21.3519    2.0995 H         1 UNK         0.0705 
     81 H81        32.5467   24.0717    3.2549 H         1 UNK         0.1334 
     82 H82        34.0990   26.0413   -0.2172 H         1 UNK         0.1417 
     83 H83        31.3143   22.8064   -0.6525 H         1 UNK         0.1562 
     84 H84        32.3565   23.7266   -2.6105 H         1 UNK         0.0748 
     85 H85        33.8043   24.6797   -2.4229 H         1 UNK         0.0748 
     86 H86        30.1121   25.2193   -1.3091 H         1 UNK         0.0940 
     87 H87        29.8476   24.8723   -2.9890 H         1 UNK         0.0940 
     88 H88        29.3191   27.3940   -3.3071 H         1 UNK         0.0703 
     89 H89        27.3485   26.2539   -1.4746 H         1 UNK         0.3081 
     90 H90        25.0587   25.7936   -4.1092 H         1 UNK         0.0719 
     91 H91        26.2650   23.4546   -2.5378 H         1 UNK         0.0809 
     92 H92        24.6848   23.4673   -3.3210 H         1 UNK         0.0809 
     93 H93        26.1460   23.5573   -4.2901 H         1 UNK         0.0809 
     94 H94        25.5761   25.6958   -1.1548 H         1 UNK         0.2990 
     95 H95        22.5460   27.3192   -0.5000 H         1 UNK         0.0690 
     96 H96        21.7589   25.3758    0.8344 H         1 UNK         0.0788 
     97 H97        22.8070   24.2925   -0.0833 H         1 UNK         0.0788 
     98 H98        21.4649   25.1065   -0.8744 H         1 UNK         0.0788 
     99 H99        24.3623   25.7527    1.1403 H         1 UNK         0.2993 
    100 H100       26.7145   28.2995    1.6515 H         1 UNK         0.0949 
    101 H101       24.9055   29.2221    3.1011 H         1 UNK         0.0767 
    102 H102       24.4515   27.6001    3.6048 H         1 UNK         0.0767 
    103 H103       26.0189   28.2616    4.0588 H         1 UNK         0.0767 
    104 H104       26.5811   26.0986    3.2323 H         1 UNK         0.3013 
    105 H105       31.1725   27.4037   -0.9345 H         1 UNK         0.3121 
    106 H106       30.3113   29.8992    0.2278 H         1 UNK         0.0774 
    107 H107       32.6671   28.0278    0.7988 H         1 UNK         0.0815 
    108 H108       32.4678   29.5942    1.5575 H         1 UNK         0.0815 
    109 H109       32.6934   29.4905   -0.1828 H         1 UNK         0.0815 
    110 H110       29.6554   30.3553    2.2826 H         1 UNK         0.2987 
    111 H111       28.5086   28.2408    3.9836 H         1 UNK         0.0949 
    112 H112       28.6433   31.3004    4.3306 H         1 UNK         0.0806 
    113 H113       27.2961   30.4390    3.5940 H         1 UNK         0.0806 
    114 H114       27.6719   30.1925    5.2902 H         1 UNK         0.0806 
    115 H115       29.1101   28.2066    6.3084 H         1 UNK         0.3010 
    116 H116       31.7864   27.6635    6.7191 H         1 UNK         0.0829 
    117 H117       29.9826   26.7438    8.1303 H         1 UNK         0.0813 
    118 H118       31.1700   27.5389    9.1461 H         1 UNK         0.0813 
    119 H119       29.6431   28.3391    8.8026 H         1 UNK         0.0813 
    120 H120       30.1578   30.7498    7.3130 H         1 UNK         0.3038 
    121 H121       32.2992   32.0554    8.7010 H         1 UNK         0.0769 
    122 H122       29.9559   33.2101    7.0902 H         1 UNK         0.0811 
    123 H123       30.9830   34.1181    8.1904 H         1 UNK         0.0811 
    124 H124       29.9473   32.8477    8.8174 H         1 UNK         0.0811 
    125 H125       31.7858   31.3788    5.2895 H         1 UNK         0.3204 
    126 H126       33.8382   33.3393    4.4133 H         1 UNK         0.0748 
    127 H127       31.8125   33.2273    3.0229 H         1 UNK         0.0771 
    128 H128       33.1742   32.5730    2.1269 H         1 UNK         0.0771 
    129 H129       31.9837   31.4871    2.8290 H         1 UNK         0.0771 
    130 H130       33.2044   29.8136    4.7168 H         1 UNK         0.2980 
    131 H131       35.6808   28.9068    3.6852 H         1 UNK         0.0545 
    132 H132       36.5143   29.8210    7.6405 H         1 UNK         0.3459 
    133 H133       34.8385   29.7656    7.1373 H         1 UNK         0.3459 
    134 H134       35.2308   26.7915    4.9410 H         1 UNK         0.0616 
    135 H135       33.9432   27.5699    5.8116 H         1 UNK         0.0616 
    136 H136       34.8785   25.3416    3.1595 H         1 UNK         0.0634 
    137 H137       34.9928   26.5984    1.9468 H         1 UNK         0.0634 
@<TRIPOS>BOND
     1    1    2 1    
     2    1   72 1    
     3    1   73 1    
     4    1   74 1    
     5    2    3 2    
     6    2    4 am   BACKBONE|DICT|INTERRES
     7    4    5 1    
     8    4   75 1    
     9    5    6 1    
    10    5   35 1    
    11    5   76 1    
    12    6    7 1    
    13    6   77 1    
    14    6   78 1    
    15    7    8 1    
    16    8    9 1    
    17    8   79 1    
    18    8   80 1    
    19    9   10 ar   
    20    9   14 ar   
    21   10   11 ar   
    22   10   81 1    
    23   11   12 ar   
    24   11   71 1    
    25   12   13 ar   
    26   12   82 1    
    27   13   14 ar   
    28   13   15 1    
    29   14   83 1    
    30   15   16 1    
    31   15   84 1    
    32   15   85 1    
    33   16   17 1    
    34   17   18 1    
    35   17   86 1    
    36   17   87 1    
    37   18   19 1    
    38   18   37 1    
    39   18   88 1    
    40   19   20 am   BACKBONE|DICT|INTERRES
    41   19   89 1    
    42   20   21 2    
    43   20   22 1    
    44   22   23 1    
    45   22   24 1    
    46   22   90 1    
    47   23   91 1    
    48   23   92 1    
    49   23   93 1    
    50   24   25 am   BACKBONE|DICT|INTERRES
    51   24   94 1    
    52   25   26 2    
    53   25   27 1    
    54   27   28 1    
    55   27   29 1    
    56   27   95 1    
    57   28   96 1    
    58   28   97 1    
    59   28   98 1    
    60   29   30 am   BACKBONE|DICT|INTERRES
    61   29   99 1    
    62   30   31 2    
    63   30   32 1    
    64   32   33 1    
    65   32   34 1    
    66   32  100 1    
    67   33  101 1    
    68   33  102 1    
    69   33  103 1    
    70   34   35 am   BACKBONE|DICT|INTERRES
    71   34  104 1    
    72   35   36 2    
    73   37   38 2    
    74   37   39 am   BACKBONE|DICT|INTERRES
    75   39   40 1    
    76   39  105 1    
    77   40   41 1    
    78   40   42 1    
    79   40  106 1    
    80   41  107 1    
    81   41  108 1    
    82   41  109 1    
    83   42   43 2    
    84   42   44 am   BACKBONE|DICT|INTERRES
    85   44   45 1    
    86   44  110 1    
    87   45   46 1    
    88   45   47 1    
    89   45  111 1    
    90   46  112 1    
    91   46  113 1    
    92   46  114 1    
    93   47   48 2    
    94   47   49 am   BACKBONE|DICT|INTERRES
    95   49   50 1    
    96   49  115 1    
    97   50   51 1    
    98   50   52 1    
    99   50  116 1    
   100   51  117 1    
   101   51  118 1    
   102   51  119 1    
   103   52   53 2    
   104   52   54 am   BACKBONE|DICT|INTERRES
   105   54   55 1    
   106   54  120 1    
   107   55   56 1    
   108   55   57 1    
   109   55  121 1    
   110   56  122 1    
   111   56  123 1    
   112   56  124 1    
   113   57   58 2    
   114   57   59 am   BACKBONE|DICT|INTERRES
   115   59   60 1    
   116   59  125 1    
   117   60   61 1    
   118   60   62 1    
   119   60  126 1    
   120   61  127 1    
   121   61  128 1    
   122   61  129 1    
   123   62   63 2    
   124   62   64 am   BACKBONE|DICT|INTERRES
   125   64   65 1    
   126   64  130 1    
   127   65   66 1    
   128   65   69 1    
   129   65  131 1    
   130   66   67 am   BACKBONE|DICT|INTERRES
   131   66   68 2    
   132   67  132 1    
   133   67  133 1    
   134   69   70 1    
   135   69  134 1    
   136   69  135 1    
   137   70   71 1    
   138   71  136 1    
   139   71  137 1    
@<TRIPOS>SUBSTRUCTURE
     1 UNK         1 GROUP             0       ****    0 ROOT    
