@<TRIPOS>MOLECULE
3R136
137   139    1
SMALL
USER_CHARGES


@<TRIPOS>ATOM
      1 CA         31.0235   24.3463    5.6751 C.3       0 UNK        -0.1979 
      2 C          30.0846   23.2887    5.1155 C.2       0 UNK         0.4864 
      3 O          30.2849   22.0988    5.3630 O.2       0 UNK        -0.5359 
      4 N          29.0705   23.7117    4.3554 N.am      1 UNK        -0.4318 
      5 CA         28.0820   22.8551    3.7038 C.3       1 UNK         0.0824 
      6 C6         28.6315   22.1680    2.4199 C.3       12 UNK        -0.0944 
      7 S7         29.1897   23.3345    1.1261 S.3       12 UNK        -0.2672 
      8 C8         30.9930   23.2600    1.3247 C.3       12 UNK         0.0333 
      9 C9         31.6500   24.5525    0.8673 C.ar      12 UNK        -0.0807 
     10 C10        31.8854   25.5765    1.7887 C.ar      12 UNK        -0.0894 
     11 C11        32.5428   26.7457    1.3981 C.ar      12 UNK        -0.0804 
     12 C12        32.9520   26.8909    0.0695 C.ar      12 UNK        -0.0824 
     13 C13        32.7043   25.8828   -0.8713 C.ar      12 UNK        -0.0762 
     14 C14        32.0515   24.7146   -0.4623 C.ar      12 UNK        -0.0782 
     15 C15        33.2122   26.0017   -2.3064 C.3       12 UNK         0.0230 
     16 S16        33.0163   27.6659   -3.0280 S.3       12 UNK        -0.2608 
     17 C17        31.3428   27.6169   -3.7681 C.3       12 UNK        -0.0989 
     18 CA         30.2271   28.3575   -2.9821 C.3       5 UNK         0.0716 
     19 N          29.7677   27.5774   -1.8318 N.am      5 UNK        -0.4135 
     20 C          28.5720   27.7344   -1.2511 C.2       4 UNK         0.5031 
     21 O          27.7673   28.6196   -1.5538 O.2       4 UNK        -0.5229 
     22 CA         28.2385   26.7446   -0.1247 C.3       4 UNK         0.0329 
     23 CB         28.7799   27.2738    1.2086 C.3       4 UNK        -0.2001 
     24 N          26.8016   26.4938    0.0159 N.am      4 UNK        -0.4303 
     25 C          26.0025   25.9661   -0.9230 C.2       3 UNK         0.5044 
     26 O          26.3967   25.5712   -2.0228 O.2       3 UNK        -0.5152 
     27 CA         24.5094   25.8562   -0.5442 C.3       3 UNK         0.0319 
     28 CB         23.6568   25.1499   -1.6211 C.3       3 UNK        -0.2001 
     29 N          24.3107   25.2394    0.7755 N.am      3 UNK        -0.4354 
     30 C          24.6985   24.0108    1.1484 C.2       2 UNK         0.4964 
     31 O          25.2016   23.1770    0.3918 O.2       2 UNK        -0.5047 
     32 CA         24.4874   23.6427    2.6260 C.3       2 UNK         0.0288 
     33 CB         23.3002   22.6788    2.7881 C.3       2 UNK        -0.2113 
     34 N          25.7010   23.0163    3.1504 N.am      2 UNK        -0.4145 
     35 C          26.8224   23.6945    3.4273 C.2       1 UNK         0.5006 
     36 O          26.8896   24.9281    3.4442 O.2       1 UNK        -0.5103 
     37 C          30.6050   29.8153   -2.6347 C.2       5 UNK         0.5055 
     38 O          30.5986   30.6611   -3.5316 O.2       5 UNK        -0.5220 
     39 N          30.9499   30.0846   -1.3683 N.am      6 UNK        -0.4450 
     40 CA         31.4888   31.3552   -0.8938 C.3       6 UNK         0.0367 
     41 CB         32.9559   31.4963   -1.3589 C.3       6 UNK        -0.1929 
     42 C          31.3868   31.4254    0.6363 C.2       6 UNK         0.5070 
     43 O          30.9008   30.4849    1.2727 O.2       6 UNK        -0.5237 
     44 N          31.8645   32.5496    1.1912 N.am      7 UNK        -0.4739 
     45 CA         32.1262   32.8195    2.6139 C.3       7 UNK         0.0276 
     46 CB         33.2963   31.9391    3.1065 C.3       7 UNK        -0.1927 
     47 C          30.9060   32.7017    3.5458 C.2       7 UNK         0.5013 
     48 O          31.0898   32.5171    4.7483 O.2       7 UNK        -0.5193 
     49 N          29.6861   32.7578    2.9891 N.am      8 UNK        -0.4253 
     50 CA         28.4043   32.5146    3.6690 C.3       8 UNK         0.0242 
     51 CB         28.0507   33.7021    4.5899 C.3       8 UNK        -0.2000 
     52 C          28.3594   31.1554    4.4050 C.2       8 UNK         0.4948 
     53 O          27.7489   31.0552    5.4704 O.2       8 UNK        -0.5275 
     54 N          29.0410   30.1504    3.8308 N.am      9 UNK        -0.4246 
     55 CA         29.2598   28.7994    4.3583 C.3       9 UNK         0.0261 
     56 CB         27.9284   28.0572    4.6076 C.3       9 UNK        -0.1959 
     57 C          30.2023   28.7162    5.5752 C.2       9 UNK         0.5033 
     58 O          30.3060   27.6375    6.1612 O.2       9 UNK        -0.5390 
     59 N          30.9309   29.7897    5.9210 N.am      10 UNK        -0.4215 
     60 CA         31.8808   29.8253    7.0440 C.3       10 UNK         0.0240 
     61 CB         32.0682   31.2805    7.5124 C.3       10 UNK        -0.1982 
     62 C          33.2268   29.1246    6.7453 C.2       10 UNK         0.4970 
     63 O          34.2820   29.6469    7.1100 O.2       10 UNK        -0.4916 
     64 N          33.1676   27.9513    6.1063 N.am      11 UNK        -0.4279 
     65 CA         34.3101   27.0608    5.8411 C.3       11 UNK         0.1003 
     66 C          34.4627   25.9333    6.9036 C.2       11 UNK         0.5709 
     67 N          33.5714   25.8068    7.8809 N.am      11 UNK        -0.7358 
     68 O          35.4203   25.1653    6.8514 O.2       11 UNK        -0.4999 
     69 C69        34.2635   26.4791    4.4025 C.3       12 UNK        -0.0954 
     70 S70        34.4660   27.7671    3.1264 S.3       12 UNK        -0.2268 
     71 C71        32.8023   27.8604    2.4015 C.3       12 UNK         0.0203 
     72 H72        30.9050   25.2982    5.1604 H         1 UNK         0.0888 
     73 H73        30.8267   24.5044    6.7351 H         1 UNK         0.0888 
     74 H74        32.0600   24.0295    5.5632 H         1 UNK         0.0888 
     75 H75        28.8959   24.6984    4.2102 H         1 UNK         0.3017 
     76 H76        27.7909   22.0792    4.4154 H         1 UNK         0.0873 
     77 H77        27.8676   21.5247    1.9800 H         1 UNK         0.0745 
     78 H78        29.4509   21.4968    2.6811 H         1 UNK         0.0745 
     79 H79        31.2473   23.0727    2.3685 H         1 UNK         0.0705 
     80 H80        31.3824   22.4119    0.7596 H         1 UNK         0.0705 
     81 H81        31.5620   25.4564    2.8121 H         1 UNK         0.1334 
     82 H82        33.4780   27.7884   -0.2263 H         1 UNK         0.1417 
     83 H83        31.8769   23.9163   -1.1713 H         1 UNK         0.1562 
     84 H84        32.7370   25.2645   -2.9553 H         1 UNK         0.0748 
     85 H85        34.2755   25.7589   -2.3032 H         1 UNK         0.0748 
     86 H86        31.0489   26.5826   -3.9531 H         1 UNK         0.0940 
     87 H87        31.4280   28.0638   -4.7605 H         1 UNK         0.0940 
     88 H88        29.3747   28.4311   -3.6619 H         1 UNK         0.0703 
     89 H89        30.3929   26.8564   -1.5001 H         1 UNK         0.3081 
     90 H90        28.7215   25.7934   -0.3535 H         1 UNK         0.0719 
     91 H91        28.6640   26.5357    2.0026 H         1 UNK         0.0809 
     92 H92        29.8410   27.5107    1.1376 H         1 UNK         0.0809 
     93 H93        28.2681   28.1882    1.5100 H         1 UNK         0.0809 
     94 H94        26.3856   26.7721    0.8919 H         1 UNK         0.2990 
     95 H95        24.1433   26.8808   -0.4626 H         1 UNK         0.0690 
     96 H96        22.6057   25.1145   -1.3349 H         1 UNK         0.0788 
     97 H97        23.9904   24.1273   -1.8001 H         1 UNK         0.0788 
     98 H98        23.7154   25.6799   -2.5726 H         1 UNK         0.0788 
     99 H99        23.8990   25.8407    1.4764 H         1 UNK         0.2993 
    100 H100       24.2814   24.5477    3.2024 H         1 UNK         0.0949 
    101 H101       23.1391   22.4204    3.8350 H         1 UNK         0.0767 
    102 H102       22.3785   23.1318    2.4204 H         1 UNK         0.0767 
    103 H103       23.4519   21.7522    2.2325 H         1 UNK         0.0767 
    104 H104       25.7330   22.0076    3.1204 H         1 UNK         0.3013 
    105 H105       30.8644   29.3722   -0.6548 H         1 UNK         0.3121 
    106 H106       30.8905   32.1702   -1.3062 H         1 UNK         0.0774 
    107 H107       33.5841   30.7089   -0.9398 H         1 UNK         0.0815 
    108 H108       33.3865   32.4522   -1.0600 H         1 UNK         0.0815 
    109 H109       33.0411   31.4425   -2.4442 H         1 UNK         0.0815 
    110 H110       32.1838   33.2744    0.5625 H         1 UNK         0.2987 
    111 H111       32.4462   33.8609    2.6751 H         1 UNK         0.0949 
    112 H112       33.0133   30.8877    3.1637 H         1 UNK         0.0806 
    113 H113       34.1609   32.0181    2.4477 H         1 UNK         0.0806 
    114 H114       33.6245   32.2384    4.1028 H         1 UNK         0.0806 
    115 H115       29.6409   32.8904    1.9884 H         1 UNK         0.3010 
    116 H116       27.6440   32.4607    2.8883 H         1 UNK         0.0829 
    117 H117       28.7423   33.7814    5.4295 H         1 UNK         0.0813 
    118 H118       28.0732   34.6466    4.0465 H         1 UNK         0.0813 
    119 H119       27.0477   33.5924    5.0042 H         1 UNK         0.0813 
    120 H120       29.5333   30.3552    2.9661 H         1 UNK         0.3038 
    121 H121       29.7811   28.2665    3.5653 H         1 UNK         0.0769 
    122 H122       28.1030   26.9994    4.8061 H         1 UNK         0.0811 
    123 H123       27.3941   28.4577    5.4691 H         1 UNK         0.0811 
    124 H124       27.2648   28.1157    3.7457 H         1 UNK         0.0811 
    125 H125       30.8318   30.6544    5.3956 H         1 UNK         0.3204 
    126 H126       31.4315   29.2814    7.8776 H         1 UNK         0.0748 
    127 H127       32.6320   31.3219    8.4452 H         1 UNK         0.0771 
    128 H128       32.6149   31.8724    6.7776 H         1 UNK         0.0771 
    129 H129       31.1102   31.7692    7.6919 H         1 UNK         0.0771 
    130 H130       32.2450   27.5791    5.9082 H         1 UNK         0.2980 
    131 H131       35.2315   27.6406    5.9183 H         1 UNK         0.0545 
    132 H132       32.7873   26.4347    7.9492 H         1 UNK         0.3459 
    133 H133       33.6939   25.0767    8.5645 H         1 UNK         0.3459 
    134 H134       35.0710   25.7610    4.2494 H         1 UNK         0.0616 
    135 H135       33.3376   25.9279    4.2432 H         1 UNK         0.0616 
    136 H136       32.7127   28.8214    1.8982 H         1 UNK         0.0634 
    137 H137       32.0556   27.8563    3.1946 H         1 UNK         0.0634 
@<TRIPOS>BOND
     1    1    2 1    
     2    1   72 1    
     3    1   73 1    
     4    1   74 1    
     5    2    3 2    
     6    2    4 am   BACKBONE|DICT|INTERRES
     7    4    5 1    
     8    4   75 1    
     9    5    6 1    
    10    5   35 1    
    11    5   76 1    
    12    6    7 1    
    13    6   77 1    
    14    6   78 1    
    15    7    8 1    
    16    8    9 1    
    17    8   79 1    
    18    8   80 1    
    19    9   10 ar   
    20    9   14 ar   
    21   10   11 ar   
    22   10   81 1    
    23   11   12 ar   
    24   11   71 1    
    25   12   13 ar   
    26   12   82 1    
    27   13   14 ar   
    28   13   15 1    
    29   14   83 1    
    30   15   16 1    
    31   15   84 1    
    32   15   85 1    
    33   16   17 1    
    34   17   18 1    
    35   17   86 1    
    36   17   87 1    
    37   18   19 1    
    38   18   37 1    
    39   18   88 1    
    40   19   20 am   BACKBONE|DICT|INTERRES
    41   19   89 1    
    42   20   21 2    
    43   20   22 1    
    44   22   23 1    
    45   22   24 1    
    46   22   90 1    
    47   23   91 1    
    48   23   92 1    
    49   23   93 1    
    50   24   25 am   BACKBONE|DICT|INTERRES
    51   24   94 1    
    52   25   26 2    
    53   25   27 1    
    54   27   28 1    
    55   27   29 1    
    56   27   95 1    
    57   28   96 1    
    58   28   97 1    
    59   28   98 1    
    60   29   30 am   BACKBONE|DICT|INTERRES
    61   29   99 1    
    62   30   31 2    
    63   30   32 1    
    64   32   33 1    
    65   32   34 1    
    66   32  100 1    
    67   33  101 1    
    68   33  102 1    
    69   33  103 1    
    70   34   35 am   BACKBONE|DICT|INTERRES
    71   34  104 1    
    72   35   36 2    
    73   37   38 2    
    74   37   39 am   BACKBONE|DICT|INTERRES
    75   39   40 1    
    76   39  105 1    
    77   40   41 1    
    78   40   42 1    
    79   40  106 1    
    80   41  107 1    
    81   41  108 1    
    82   41  109 1    
    83   42   43 2    
    84   42   44 am   BACKBONE|DICT|INTERRES
    85   44   45 1    
    86   44  110 1    
    87   45   46 1    
    88   45   47 1    
    89   45  111 1    
    90   46  112 1    
    91   46  113 1    
    92   46  114 1    
    93   47   48 2    
    94   47   49 am   BACKBONE|DICT|INTERRES
    95   49   50 1    
    96   49  115 1    
    97   50   51 1    
    98   50   52 1    
    99   50  116 1    
   100   51  117 1    
   101   51  118 1    
   102   51  119 1    
   103   52   53 2    
   104   52   54 am   BACKBONE|DICT|INTERRES
   105   54   55 1    
   106   54  120 1    
   107   55   56 1    
   108   55   57 1    
   109   55  121 1    
   110   56  122 1    
   111   56  123 1    
   112   56  124 1    
   113   57   58 2    
   114   57   59 am   BACKBONE|DICT|INTERRES
   115   59   60 1    
   116   59  125 1    
   117   60   61 1    
   118   60   62 1    
   119   60  126 1    
   120   61  127 1    
   121   61  128 1    
   122   61  129 1    
   123   62   63 2    
   124   62   64 am   BACKBONE|DICT|INTERRES
   125   64   65 1    
   126   64  130 1    
   127   65   66 1    
   128   65   69 1    
   129   65  131 1    
   130   66   67 am   BACKBONE|DICT|INTERRES
   131   66   68 2    
   132   67  132 1    
   133   67  133 1    
   134   69   70 1    
   135   69  134 1    
   136   69  135 1    
   137   70   71 1    
   138   71  136 1    
   139   71  137 1    
@<TRIPOS>SUBSTRUCTURE
     1 UNK         1 GROUP             0       ****    0 ROOT    
