@<TRIPOS>MOLECULE
3R136
137   139    1
SMALL
USER_CHARGES


@<TRIPOS>ATOM
      1 CA         29.4614   28.2216   -1.3738 C.3       0 UNK        -0.1979 
      2 C          29.4031   26.7030   -1.3117 C.2       0 UNK         0.4864 
      3 O          29.1288   26.0607   -2.3270 O.2       0 UNK        -0.5359 
      4 N          29.6495   26.1353   -0.1237 N.am      1 UNK        -0.4318 
      5 CA         29.7184   24.7027    0.1889 C.3       1 UNK         0.0824 
      6 C6         30.9723   23.9931   -0.4004 C.3       12 UNK        -0.0944 
      7 S7         32.5528   24.7486    0.1042 S.3       12 UNK        -0.2672 
      8 C8         32.9349   23.8461    1.6402 C.3       12 UNK         0.0333 
      9 C9         32.1698   24.4182    2.8239 C.ar      12 UNK        -0.0807 
     10 C10        32.4939   25.6902    3.3028 C.ar      12 UNK        -0.0894 
     11 C11        31.7938   26.2470    4.3747 C.ar      12 UNK        -0.0804 
     12 C12        30.7651   25.5157    4.9747 C.ar      12 UNK        -0.0824 
     13 C13        30.4298   24.2404    4.5082 C.ar      12 UNK        -0.0762 
     14 C14        31.1411   23.6930    3.4348 C.ar      12 UNK        -0.0782 
     15 C15        29.3096   23.4490    5.1707 C.3       12 UNK         0.0230 
     16 S16        27.6857   23.7781    4.4085 S.3       12 UNK        -0.2608 
     17 C17        27.3084   25.4509    5.0328 C.3       12 UNK        -0.0989 
     18 CA         27.4400   26.5190    3.9193 C.3       5 UNK         0.0716 
     19 N          26.3563   26.4087    2.9316 N.am      5 UNK        -0.4135 
     20 C          26.3700   26.9928    1.7280 C.2       4 UNK         0.5031 
     21 O          27.3138   27.6587    1.3004 O.2       4 UNK        -0.5229 
     22 CA         25.0946   26.8887    0.8886 C.3       4 UNK         0.0329 
     23 CB         24.3054   28.2122    0.9795 C.3       4 UNK        -0.2001 
     24 N          25.4880   26.5889   -0.4848 N.am      4 UNK        -0.4303 
     25 C          24.6750   26.3281   -1.5158 C.2       3 UNK         0.5044 
     26 O          23.4456   26.3741   -1.4624 O.2       3 UNK        -0.5152 
     27 CA         25.3577   25.8955   -2.8244 C.3       3 UNK         0.0319 
     28 CB         26.0026   27.0930   -3.5401 C.3       3 UNK        -0.2001 
     29 N          26.3573   24.8503   -2.5860 N.am      3 UNK        -0.4354 
     30 C          26.0436   23.5859   -2.2570 C.2       2 UNK         0.4964 
     31 O          24.8909   23.1525   -2.2342 O.2       2 UNK        -0.5047 
     32 CA         27.1944   22.6359   -1.8807 C.3       2 UNK         0.0288 
     33 CB         27.6230   21.7984   -3.0967 C.3       2 UNK        -0.2113 
     34 N          28.3651   23.3216   -1.3333 N.am      2 UNK        -0.4145 
     35 C          28.4012   23.9821   -0.1665 C.2       1 UNK         0.5006 
     36 O          27.4457   24.0516    0.6065 O.2       1 UNK        -0.5103 
     37 C          27.5470   27.9367    4.5264 C.2       5 UNK         0.5055 
     38 O          28.5987   28.2844    5.0622 O.2       5 UNK        -0.5220 
     39 N          26.4696   28.7300    4.4368 N.am      6 UNK        -0.4450 
     40 CA         26.4358   30.1373    4.8383 C.3       6 UNK         0.0367 
     41 CB         24.9745   30.5480    5.0857 C.3       6 UNK        -0.1929 
     42 C          27.0886   31.0796    3.8079 C.2       6 UNK         0.5070 
     43 O          27.3980   32.2188    4.1593 O.2       6 UNK        -0.5237 
     44 N          27.2652   30.6179    2.5620 N.am      7 UNK        -0.4739 
     45 CA         27.8937   31.3760    1.4809 C.3       7 UNK         0.0276 
     46 CB         27.2445   30.9699    0.1470 C.3       7 UNK        -0.1927 
     47 C          29.4096   31.1281    1.4497 C.2       7 UNK         0.5013 
     48 O          29.8864   30.1271    1.9903 O.2       7 UNK        -0.5193 
     49 N          30.1366   32.0469    0.7983 N.am      8 UNK        -0.4253 
     50 CA         31.5879   32.0724    0.5487 C.3       8 UNK         0.0242 
     51 CB         32.0389   30.8506   -0.2772 C.3       8 UNK        -0.2000 
     52 C          32.4737   32.2482    1.7981 C.2       8 UNK         0.4948 
     53 O          33.4379   33.0127    1.7335 O.2       8 UNK        -0.5275 
     54 N          32.1342   31.5586    2.8958 N.am      9 UNK        -0.4246 
     55 CA         32.8643   31.4701    4.1664 C.3       9 UNK         0.0261 
     56 CB         32.9402   32.8496    4.8600 C.3       9 UNK        -0.1959 
     57 C          34.2374   30.7820    4.0052 C.2       9 UNK         0.5033 
     58 O          34.4484   30.0665    3.0226 O.2       9 UNK        -0.5390 
     59 N          35.1234   30.9647    4.9988 N.am      10 UNK        -0.4215 
     60 CA         36.4557   30.3491    5.1221 C.3       10 UNK         0.0240 
     61 CB         37.4238   30.9303    4.0689 C.3       10 UNK        -0.1982 
     62 C          36.3922   28.8072    5.1002 C.2       10 UNK         0.4970 
     63 O          37.1275   28.1625    4.3495 O.2       10 UNK        -0.4916 
     64 N          35.4655   28.2622    5.8980 N.am      11 UNK        -0.4279 
     65 CA         35.0998   26.8411    5.9514 C.3       11 UNK         0.1003 
     66 C          36.2717   25.9063    6.3601 C.2       11 UNK         0.5709 
     67 N          36.3084   24.6901    5.8323 N.am      11 UNK        -0.7358 
     68 O          37.1163   26.2562    7.1831 O.2       11 UNK        -0.4999 
     69 C69        33.8725   26.6063    6.8744 C.3       12 UNK        -0.0954 
     70 S70        32.4693   27.7562    6.6375 S.3       12 UNK        -0.2268 
     71 C71        32.1296   27.6543    4.8490 C.3       12 UNK         0.0203 
     72 H72        30.2775   28.5379   -2.0223 H         1 UNK         0.0888 
     73 H73        28.5323   28.6234   -1.7738 H         1 UNK         0.0888 
     74 H74        29.6206   28.6581   -0.3881 H         1 UNK         0.0888 
     75 H75        29.7908   26.7431    0.6717 H         1 UNK         0.3017 
     76 H76        29.7871   24.6514    1.2747 H         1 UNK         0.0873 
     77 H77        30.9842   22.9378   -0.1211 H         1 UNK         0.0745 
     78 H78        30.9536   24.0191   -1.4911 H         1 UNK         0.0745 
     79 H79        34.0047   23.9300    1.8372 H         1 UNK         0.0705 
     80 H80        32.7323   22.7818    1.5115 H         1 UNK         0.0705 
     81 H81        33.2821   26.2541    2.8220 H         1 UNK         0.1334 
     82 H82        30.2248   25.9509    5.8034 H         1 UNK         0.1417 
     83 H83        30.8844   22.7080    3.0687 H         1 UNK         0.1562 
     84 H84        29.2687   23.6667    6.2391 H         1 UNK         0.0748 
     85 H85        29.5190   22.3811    5.0923 H         1 UNK         0.0748 
     86 H86        27.9634   25.6698    5.8773 H         1 UNK         0.0940 
     87 H87        26.2984   25.4496    5.4468 H         1 UNK         0.0940 
     88 H88        28.3827   26.3484    3.3934 H         1 UNK         0.0703 
     89 H89        25.5595   25.8502    3.2016 H         1 UNK         0.3081 
     90 H90        24.4803   26.0657    1.2591 H         1 UNK         0.0719 
     91 H91        24.8623   29.0416    0.5426 H         1 UNK         0.0809 
     92 H92        23.3461   28.1494    0.4668 H         1 UNK         0.0809 
     93 H93        24.0907   28.4732    2.0162 H         1 UNK         0.0809 
     94 H94        26.4876   26.5145   -0.6182 H         1 UNK         0.2990 
     95 H95        24.5887   25.4888   -3.4851 H         1 UNK         0.0690 
     96 H96        26.4459   26.7944   -4.4902 H         1 UNK         0.0788 
     97 H97        26.7839   27.5549   -2.9384 H         1 UNK         0.0788 
     98 H98        25.2602   27.8625   -3.7557 H         1 UNK         0.0788 
     99 H99        27.3333   25.1333   -2.5860 H         1 UNK         0.2993 
    100 H100       26.8163   21.9585   -1.1117 H         1 UNK         0.0949 
    101 H101       28.3800   21.0622   -2.8252 H         1 UNK         0.0767 
    102 H102       26.7754   21.2510   -3.5117 H         1 UNK         0.0767 
    103 H103       28.0298   22.4225   -3.8936 H         1 UNK         0.0767 
    104 H104       29.1792   23.3671   -1.9291 H         1 UNK         0.3013 
    105 H105       25.6342   28.3591    4.0104 H         1 UNK         0.3121 
    106 H106       26.9846   30.2478    5.7763 H         1 UNK         0.0774 
    107 H107       24.9126   31.5837    5.4229 H         1 UNK         0.0815 
    108 H108       24.3716   30.4647    4.1805 H         1 UNK         0.0815 
    109 H109       24.5129   29.9312    5.8570 H         1 UNK         0.0815 
    110 H110       27.0991   29.6379    2.3717 H         1 UNK         0.2987 
    111 H111       27.7227   32.4440    1.6350 H         1 UNK         0.0949 
    112 H112       27.3548   29.9042   -0.0493 H         1 UNK         0.0806 
    113 H113       26.1791   31.2001    0.1420 H         1 UNK         0.0806 
    114 H114       27.6922   31.5035   -0.6922 H         1 UNK         0.0806 
    115 H115       29.6391   32.8421    0.4210 H         1 UNK         0.3010 
    116 H116       31.7562   32.9560   -0.0694 H         1 UNK         0.0829 
    117 H117       31.9194   29.9171    0.2735 H         1 UNK         0.0813 
    118 H118       31.4749   30.7692   -1.2062 H         1 UNK         0.0813 
    119 H119       33.0936   30.9318   -0.5439 H         1 UNK         0.0813 
    120 H120       31.3444   30.9239    2.7918 H         1 UNK         0.3038 
    121 H121       32.2684   30.8127    4.8012 H         1 UNK         0.0769 
    122 H122       33.2479   32.7586    5.9019 H         1 UNK         0.0811 
    123 H123       31.9675   33.3419    4.8630 H         1 UNK         0.0811 
    124 H124       33.6469   33.5163    4.3643 H         1 UNK         0.0811 
    125 H125       34.8491   31.5637    5.7653 H         1 UNK         0.3204 
    126 H126       36.8381   30.6245    6.1062 H         1 UNK         0.0748 
    127 H127       38.4360   30.5521    4.2170 H         1 UNK         0.0771 
    128 H128       37.1237   30.6678    3.0537 H         1 UNK         0.0771 
    129 H129       37.4721   32.0174    4.1324 H         1 UNK         0.0771 
    130 H130       34.9155   28.8694    6.4859 H         1 UNK         0.2980 
    131 H131       34.8149   26.5665    4.9348 H         1 UNK         0.0545 
    132 H132       37.0519   24.0638    6.0989 H         1 UNK         0.3459 
    133 H133       35.6100   24.3857    5.1725 H         1 UNK         0.3459 
    134 H134       33.4971   25.5894    6.7456 H         1 UNK         0.0616 
    135 H135       34.1698   26.6854    7.9219 H         1 UNK         0.0616 
    136 H136       31.2903   28.3102    4.6150 H         1 UNK         0.0634 
    137 H137       32.9841   28.0531    4.3024 H         1 UNK         0.0634 
@<TRIPOS>BOND
     1    1    2 1    
     2    1   72 1    
     3    1   73 1    
     4    1   74 1    
     5    2    3 2    
     6    2    4 am   BACKBONE|DICT|INTERRES
     7    4    5 1    
     8    4   75 1    
     9    5    6 1    
    10    5   35 1    
    11    5   76 1    
    12    6    7 1    
    13    6   77 1    
    14    6   78 1    
    15    7    8 1    
    16    8    9 1    
    17    8   79 1    
    18    8   80 1    
    19    9   10 ar   
    20    9   14 ar   
    21   10   11 ar   
    22   10   81 1    
    23   11   12 ar   
    24   11   71 1    
    25   12   13 ar   
    26   12   82 1    
    27   13   14 ar   
    28   13   15 1    
    29   14   83 1    
    30   15   16 1    
    31   15   84 1    
    32   15   85 1    
    33   16   17 1    
    34   17   18 1    
    35   17   86 1    
    36   17   87 1    
    37   18   19 1    
    38   18   37 1    
    39   18   88 1    
    40   19   20 am   BACKBONE|DICT|INTERRES
    41   19   89 1    
    42   20   21 2    
    43   20   22 1    
    44   22   23 1    
    45   22   24 1    
    46   22   90 1    
    47   23   91 1    
    48   23   92 1    
    49   23   93 1    
    50   24   25 am   BACKBONE|DICT|INTERRES
    51   24   94 1    
    52   25   26 2    
    53   25   27 1    
    54   27   28 1    
    55   27   29 1    
    56   27   95 1    
    57   28   96 1    
    58   28   97 1    
    59   28   98 1    
    60   29   30 am   BACKBONE|DICT|INTERRES
    61   29   99 1    
    62   30   31 2    
    63   30   32 1    
    64   32   33 1    
    65   32   34 1    
    66   32  100 1    
    67   33  101 1    
    68   33  102 1    
    69   33  103 1    
    70   34   35 am   BACKBONE|DICT|INTERRES
    71   34  104 1    
    72   35   36 2    
    73   37   38 2    
    74   37   39 am   BACKBONE|DICT|INTERRES
    75   39   40 1    
    76   39  105 1    
    77   40   41 1    
    78   40   42 1    
    79   40  106 1    
    80   41  107 1    
    81   41  108 1    
    82   41  109 1    
    83   42   43 2    
    84   42   44 am   BACKBONE|DICT|INTERRES
    85   44   45 1    
    86   44  110 1    
    87   45   46 1    
    88   45   47 1    
    89   45  111 1    
    90   46  112 1    
    91   46  113 1    
    92   46  114 1    
    93   47   48 2    
    94   47   49 am   BACKBONE|DICT|INTERRES
    95   49   50 1    
    96   49  115 1    
    97   50   51 1    
    98   50   52 1    
    99   50  116 1    
   100   51  117 1    
   101   51  118 1    
   102   51  119 1    
   103   52   53 2    
   104   52   54 am   BACKBONE|DICT|INTERRES
   105   54   55 1    
   106   54  120 1    
   107   55   56 1    
   108   55   57 1    
   109   55  121 1    
   110   56  122 1    
   111   56  123 1    
   112   56  124 1    
   113   57   58 2    
   114   57   59 am   BACKBONE|DICT|INTERRES
   115   59   60 1    
   116   59  125 1    
   117   60   61 1    
   118   60   62 1    
   119   60  126 1    
   120   61  127 1    
   121   61  128 1    
   122   61  129 1    
   123   62   63 2    
   124   62   64 am   BACKBONE|DICT|INTERRES
   125   64   65 1    
   126   64  130 1    
   127   65   66 1    
   128   65   69 1    
   129   65  131 1    
   130   66   67 am   BACKBONE|DICT|INTERRES
   131   66   68 2    
   132   67  132 1    
   133   67  133 1    
   134   69   70 1    
   135   69  134 1    
   136   69  135 1    
   137   70   71 1    
   138   71  136 1    
   139   71  137 1    
@<TRIPOS>SUBSTRUCTURE
     1 UNK         1 GROUP             0       ****    0 ROOT    
