@<TRIPOS>MOLECULE
3R136
137   139    1
SMALL
USER_CHARGES


@<TRIPOS>ATOM
      1 CA         27.1055   18.2601    0.2884 C.3       0 UNK        -0.1979 
      2 C          27.8871   19.5018   -0.1146 C.2       0 UNK         0.4864 
      3 O          28.2173   19.6612   -1.2904 O.2       0 UNK        -0.5359 
      4 N          28.1857   20.3803    0.8523 N.am      1 UNK        -0.4318 
      5 CA         28.9449   21.6231    0.6546 C.3       1 UNK         0.0824 
      6 C6         29.4509   22.2097    1.9960 C.3       12 UNK        -0.0944 
      7 S7         30.5129   21.0564    2.9344 S.3       12 UNK        -0.2672 
      8 C8         32.1195   21.2042    2.0831 C.3       12 UNK         0.0333 
      9 C9         32.6951   22.6099    2.1718 C.ar      12 UNK        -0.0807 
     10 C10        33.3303   23.0423    3.3410 C.ar      12 UNK        -0.0894 
     11 C11        33.8368   24.3428    3.4303 C.ar      12 UNK        -0.0804 
     12 C12        33.7060   25.2088    2.3408 C.ar      12 UNK        -0.0824 
     13 C13        33.0567   24.7931    1.1755 C.ar      12 UNK        -0.0762 
     14 C14        32.5754   23.4846    1.0872 C.ar      12 UNK        -0.0782 
     15 C15        32.8343   25.7764    0.0343 C.3       12 UNK         0.0230 
     16 S16        31.0652   26.0812   -0.3001 S.3       12 UNK        -0.2608 
     17 C17        30.3638   26.4453    1.3508 C.3       12 UNK        -0.0989 
     18 CA         29.7232   27.8509    1.4371 C.3       5 UNK         0.0716 
     19 N          28.6549   28.0170    0.4484 N.am      5 UNK        -0.4135 
     20 C          28.2126   29.1917   -0.0172 C.2       4 UNK         0.5031 
     21 O          28.6354   30.2863    0.3550 O.2       4 UNK        -0.5229 
     22 CA         27.0534   29.1310   -1.0280 C.3       4 UNK         0.0329 
     23 CB         27.5894   28.8950   -2.4489 C.3       4 UNK        -0.2001 
     24 N          26.0465   28.1116   -0.7073 N.am      4 UNK        -0.4303 
     25 C          25.3606   28.0528    0.4435 C.2       3 UNK         0.5044 
     26 O          25.5222   28.8451    1.3701 O.2       3 UNK        -0.5152 
     27 CA         24.3481   26.9102    0.6154 C.3       3 UNK         0.0319 
     28 CB         22.9476   27.3712    0.1827 C.3       3 UNK        -0.2001 
     29 N          24.6949   25.6731   -0.0916 N.am      3 UNK        -0.4354 
     30 C          25.7772   24.9203    0.1525 C.2       2 UNK         0.4964 
     31 O          26.6657   25.2388    0.9469 O.2       2 UNK        -0.5047 
     32 CA         25.8348   23.5846   -0.6133 C.3       2 UNK         0.0288 
     33 CB         26.0297   23.8006   -2.1301 C.3       2 UNK        -0.2113 
     34 N          26.8203   22.6442   -0.0606 N.am      2 UNK        -0.4145 
     35 C          28.1608   22.6969   -0.1321 C.2       1 UNK         0.5006 
     36 O          28.7900   23.5329   -0.7802 O.2       1 UNK        -0.5103 
     37 C          29.2616   28.1522    2.8820 C.2       5 UNK         0.5055 
     38 O          30.1107   28.1953    3.7733 O.2       5 UNK        -0.5220 
     39 N          27.9512   28.3356    3.1030 N.am      6 UNK        -0.4450 
     40 CA         27.3788   28.7950    4.3691 C.3       6 UNK         0.0367 
     41 CB         26.1139   27.9808    4.6891 C.3       6 UNK        -0.1929 
     42 C          27.0591   30.2971    4.3071 C.2       6 UNK         0.5070 
     43 O          27.2667   30.9972    5.2984 O.2       6 UNK        -0.5237 
     44 N          26.5549   30.7653    3.1549 N.am      7 UNK        -0.4739 
     45 CA         26.2215   32.1646    2.8798 C.3       7 UNK         0.0276 
     46 CB         25.4643   32.2567    1.5449 C.3       7 UNK        -0.1927 
     47 C          27.4547   33.0817    2.8733 C.2       7 UNK         0.5013 
     48 O          27.4160   34.1474    3.4904 O.2       7 UNK        -0.5193 
     49 N          28.5264   32.6434    2.2014 N.am      8 UNK        -0.4253 
     50 CA         29.8499   33.2582    2.2743 C.3       8 UNK         0.0242 
     51 CB         30.5206   33.1762    0.8934 C.3       8 UNK        -0.2000 
     52 C          30.6814   32.4975    3.3126 C.2       8 UNK         0.4948 
     53 O          30.5382   31.2792    3.4285 O.2       8 UNK        -0.5275 
     54 N          31.5842   33.1980    4.0107 N.am      9 UNK        -0.4246 
     55 CA         32.4947   32.6335    5.0174 C.3       9 UNK         0.0261 
     56 CB         32.9778   33.7648    5.9446 C.3       9 UNK        -0.1959 
     57 C          33.6637   31.8456    4.3858 C.2       9 UNK         0.5033 
     58 O          34.8282   32.1024    4.6996 O.2       9 UNK        -0.5390 
     59 N          33.3325   30.9046    3.4928 N.am      10 UNK        -0.4215 
     60 CA         34.2637   30.1325    2.6664 C.3       10 UNK         0.0240 
     61 CB         33.4633   29.3055    1.6491 C.3       10 UNK        -0.1982 
     62 C          35.2191   29.2293    3.4635 C.2       10 UNK         0.4970 
     63 O          36.3283   28.9716    2.9947 O.2       10 UNK        -0.4916 
     64 N          34.7817   28.7765    4.6445 N.am      11 UNK        -0.4279 
     65 CA         35.5897   27.9839    5.5837 C.3       11 UNK         0.1003 
     66 C          36.5694   28.8314    6.4489 C.2       11 UNK         0.5709 
     67 N          36.5678   30.1582    6.3675 N.am      11 UNK        -0.7358 
     68 O          37.3588   28.2704    7.2053 O.2       11 UNK        -0.4999 
     69 C69        34.7213   27.0403    6.4644 C.3       12 UNK        -0.0954 
     70 S70        33.4774   26.0863    5.5291 S.3       12 UNK        -0.2268 
     71 C71        34.5091   24.8348    4.7024 C.3       12 UNK         0.0203 
     72 H72        26.1631   18.2163   -0.2568 H         1 UNK         0.0888 
     73 H73        27.6782   17.3638    0.0520 H         1 UNK         0.0888 
     74 H74        26.8814   18.2471    1.3549 H         1 UNK         0.0888 
     75 H75        27.9181   20.1806    1.8060 H         1 UNK         0.3017 
     76 H76        29.8176   21.3780    0.0457 H         1 UNK         0.0873 
     77 H77        28.6040   22.4705    2.6337 H         1 UNK         0.0745 
     78 H78        29.9894   23.1445    1.8374 H         1 UNK         0.0745 
     79 H79        32.8195   20.4980    2.5320 H         1 UNK         0.0705 
     80 H80        32.0084   20.8970    1.0423 H         1 UNK         0.0705 
     81 H81        33.4152   22.3701    4.1841 H         1 UNK         0.1334 
     82 H82        34.0807   26.2204    2.4202 H         1 UNK         0.1417 
     83 H83        32.0664   23.1653    0.1874 H         1 UNK         0.1562 
     84 H84        33.3022   25.3862   -0.8704 H         1 UNK         0.0748 
     85 H85        33.3201   26.7289    0.2412 H         1 UNK         0.0748 
     86 H86        31.1401   26.3467    2.1101 H         1 UNK         0.0940 
     87 H87        29.6241   25.6748    1.5780 H         1 UNK         0.0940 
     88 H88        30.4999   28.5840    1.2096 H         1 UNK         0.0703 
     89 H89        28.2304   27.1645    0.1089 H         1 UNK         0.3081 
     90 H90        26.5527   30.1011   -1.0095 H         1 UNK         0.0719 
     91 H91        28.0713   27.9209   -2.5440 H         1 UNK         0.0809 
     92 H92        26.7909   28.9494   -3.1892 H         1 UNK         0.0809 
     93 H93        28.3285   29.6515   -2.7168 H         1 UNK         0.0809 
     94 H94        25.8540   27.4163   -1.4134 H         1 UNK         0.2990 
     95 H95        24.3120   26.6753    1.6814 H         1 UNK         0.0690 
     96 H96        22.1941   26.6146    0.4025 H         1 UNK         0.0788 
     97 H97        22.9050   27.5895   -0.8852 H         1 UNK         0.0788 
     98 H98        22.6547   28.2791    0.7126 H         1 UNK         0.0788 
     99 H99        24.0181   25.3396   -0.7633 H         1 UNK         0.2993 
    100 H100       24.8673   23.1006   -0.4696 H         1 UNK         0.0949 
    101 H101       26.1328   22.8509   -2.6553 H         1 UNK         0.0767 
    102 H102       25.1756   24.3178   -2.5682 H         1 UNK         0.0767 
    103 H103       26.9133   24.4013   -2.3484 H         1 UNK         0.0767 
    104 H104       26.4310   21.9122    0.5161 H         1 UNK         0.3013 
    105 H105       27.3139   28.2870    2.3177 H         1 UNK         0.3121 
    106 H106       28.0902   28.6404    5.1832 H         1 UNK         0.0774 
    107 H107       25.6896   28.2852    5.6467 H         1 UNK         0.0815 
    108 H108       25.3387   28.1134    3.9341 H         1 UNK         0.0815 
    109 H109       26.3362   26.9158    4.7565 H         1 UNK         0.0815 
    110 H110       26.3268   30.0992    2.4205 H         1 UNK         0.2987 
    111 H111       25.5567   32.5094    3.6747 H         1 UNK         0.0949 
    112 H112       26.0706   31.8994    0.7117 H         1 UNK         0.0806 
    113 H113       24.5482   31.6661    1.5674 H         1 UNK         0.0806 
    114 H114       25.1815   33.2873    1.3262 H         1 UNK         0.0806 
    115 H115       28.4865   31.7352    1.7467 H         1 UNK         0.3010 
    116 H116       29.7711   34.3073    2.5675 H         1 UNK         0.0829 
    117 H117       29.9243   33.6811    0.1333 H         1 UNK         0.0813 
    118 H118       31.5025   33.6509    0.9056 H         1 UNK         0.0813 
    119 H119       30.6621   32.1426    0.5736 H         1 UNK         0.0813 
    120 H120       31.6803   34.1866    3.8259 H         1 UNK         0.3038 
    121 H121       31.9328   31.9248    5.6299 H         1 UNK         0.0769 
    122 H122       33.5591   34.5113    5.4018 H         1 UNK         0.0811 
    123 H123       33.6121   33.3740    6.7415 H         1 UNK         0.0811 
    124 H124       32.1397   34.2726    6.4224 H         1 UNK         0.0811 
    125 H125       32.3363   30.7660    3.3286 H         1 UNK         0.3204 
    126 H126       34.8780   30.8488    2.1169 H         1 UNK         0.0748 
    127 H127       34.1352   28.7888    0.9633 H         1 UNK         0.0771 
    128 H128       32.8446   28.5528    2.1400 H         1 UNK         0.0771 
    129 H129       32.8102   29.9369    1.0459 H         1 UNK         0.0771 
    130 H130       33.8535   29.0258    4.9509 H         1 UNK         0.2980 
    131 H131       36.2397   27.3433    4.9865 H         1 UNK         0.0545 
    132 H132       35.9416   30.6485    5.7400 H         1 UNK         0.3459 
    133 H133       37.2150   30.6825    6.9343 H         1 UNK         0.3459 
    134 H134       35.3523   26.3386    7.0131 H         1 UNK         0.0616 
    135 H135       34.1852   27.6200    7.2179 H         1 UNK         0.0616 
    136 H136       35.4815   25.2531    4.4431 H         1 UNK         0.0634 
    137 H137       34.6983   24.0125    5.3939 H         1 UNK         0.0634 
@<TRIPOS>BOND
     1    1    2 1    
     2    1   72 1    
     3    1   73 1    
     4    1   74 1    
     5    2    3 2    
     6    2    4 am   BACKBONE|DICT|INTERRES
     7    4    5 1    
     8    4   75 1    
     9    5    6 1    
    10    5   35 1    
    11    5   76 1    
    12    6    7 1    
    13    6   77 1    
    14    6   78 1    
    15    7    8 1    
    16    8    9 1    
    17    8   79 1    
    18    8   80 1    
    19    9   10 ar   
    20    9   14 ar   
    21   10   11 ar   
    22   10   81 1    
    23   11   12 ar   
    24   11   71 1    
    25   12   13 ar   
    26   12   82 1    
    27   13   14 ar   
    28   13   15 1    
    29   14   83 1    
    30   15   16 1    
    31   15   84 1    
    32   15   85 1    
    33   16   17 1    
    34   17   18 1    
    35   17   86 1    
    36   17   87 1    
    37   18   19 1    
    38   18   37 1    
    39   18   88 1    
    40   19   20 am   BACKBONE|DICT|INTERRES
    41   19   89 1    
    42   20   21 2    
    43   20   22 1    
    44   22   23 1    
    45   22   24 1    
    46   22   90 1    
    47   23   91 1    
    48   23   92 1    
    49   23   93 1    
    50   24   25 am   BACKBONE|DICT|INTERRES
    51   24   94 1    
    52   25   26 2    
    53   25   27 1    
    54   27   28 1    
    55   27   29 1    
    56   27   95 1    
    57   28   96 1    
    58   28   97 1    
    59   28   98 1    
    60   29   30 am   BACKBONE|DICT|INTERRES
    61   29   99 1    
    62   30   31 2    
    63   30   32 1    
    64   32   33 1    
    65   32   34 1    
    66   32  100 1    
    67   33  101 1    
    68   33  102 1    
    69   33  103 1    
    70   34   35 am   BACKBONE|DICT|INTERRES
    71   34  104 1    
    72   35   36 2    
    73   37   38 2    
    74   37   39 am   BACKBONE|DICT|INTERRES
    75   39   40 1    
    76   39  105 1    
    77   40   41 1    
    78   40   42 1    
    79   40  106 1    
    80   41  107 1    
    81   41  108 1    
    82   41  109 1    
    83   42   43 2    
    84   42   44 am   BACKBONE|DICT|INTERRES
    85   44   45 1    
    86   44  110 1    
    87   45   46 1    
    88   45   47 1    
    89   45  111 1    
    90   46  112 1    
    91   46  113 1    
    92   46  114 1    
    93   47   48 2    
    94   47   49 am   BACKBONE|DICT|INTERRES
    95   49   50 1    
    96   49  115 1    
    97   50   51 1    
    98   50   52 1    
    99   50  116 1    
   100   51  117 1    
   101   51  118 1    
   102   51  119 1    
   103   52   53 2    
   104   52   54 am   BACKBONE|DICT|INTERRES
   105   54   55 1    
   106   54  120 1    
   107   55   56 1    
   108   55   57 1    
   109   55  121 1    
   110   56  122 1    
   111   56  123 1    
   112   56  124 1    
   113   57   58 2    
   114   57   59 am   BACKBONE|DICT|INTERRES
   115   59   60 1    
   116   59  125 1    
   117   60   61 1    
   118   60   62 1    
   119   60  126 1    
   120   61  127 1    
   121   61  128 1    
   122   61  129 1    
   123   62   63 2    
   124   62   64 am   BACKBONE|DICT|INTERRES
   125   64   65 1    
   126   64  130 1    
   127   65   66 1    
   128   65   69 1    
   129   65  131 1    
   130   66   67 am   BACKBONE|DICT|INTERRES
   131   66   68 2    
   132   67  132 1    
   133   67  133 1    
   134   69   70 1    
   135   69  134 1    
   136   69  135 1    
   137   70   71 1    
   138   71  136 1    
   139   71  137 1    
@<TRIPOS>SUBSTRUCTURE
     1 UNK         1 GROUP             0       ****    0 ROOT    
