@<TRIPOS>MOLECULE
3R136
137   139    1
SMALL
USER_CHARGES


@<TRIPOS>ATOM
      1 CA         33.7804   21.1738   -0.7305 C.3       0 UNK        -0.1979 
      2 C          32.9674   22.2599   -0.0413 C.2       0 UNK         0.4864 
      3 O          33.0724   22.4240    1.1749 O.2       0 UNK        -0.5359 
      4 N          32.1612   23.0016   -0.8073 N.am      1 UNK        -0.4318 
      5 CA         31.3272   24.1070   -0.3433 C.3       1 UNK         0.0824 
      6 C6         30.0186   23.6073    0.3231 C.3       12 UNK        -0.0944 
      7 S7         29.2450   24.8774    1.3795 S.3       12 UNK        -0.2672 
      8 C8         29.5973   24.2126    3.0349 C.3       12 UNK         0.0333 
      9 C9         29.2071   25.2254    4.0959 C.ar      12 UNK        -0.0807 
     10 C10        30.1006   26.2388    4.4460 C.ar      12 UNK        -0.0894 
     11 C11        29.7341   27.2266    5.3632 C.ar      12 UNK        -0.0804 
     12 C12        28.4608   27.1898    5.9375 C.ar      12 UNK        -0.0824 
     13 C13        27.5608   26.1727    5.6020 C.ar      12 UNK        -0.0762 
     14 C14        27.9451   25.1814    4.6939 C.ar      12 UNK        -0.0782 
     15 C15        26.1634   26.1697    6.1989 C.3       12 UNK         0.0230 
     16 S16        25.0623   27.2950    5.2849 S.3       12 UNK        -0.2608 
     17 C17        24.6204   26.3009    3.8147 C.3       12 UNK        -0.0989 
     18 CA         25.4982   26.5288    2.5511 C.3       5 UNK         0.0716 
     19 N          24.9522   25.8728    1.3723 N.am      5 UNK        -0.4135 
     20 C          24.8880   24.5603    1.1266 C.2       4 UNK         0.5031 
     21 O          25.2048   23.6861    1.9336 O.2       4 UNK        -0.5229 
     22 CA         24.4153   24.1677   -0.2878 C.3       4 UNK         0.0329 
     23 CB         22.8800   24.1371   -0.3624 C.3       4 UNK        -0.2001 
     24 N          24.9440   25.0854   -1.3061 N.am      4 UNK        -0.4303 
     25 C          26.2407   25.1423   -1.6414 C.2       3 UNK         0.5044 
     26 O          27.0628   24.2929   -1.2943 O.2       3 UNK        -0.5152 
     27 CA         26.7193   26.3575   -2.4531 C.3       3 UNK         0.0319 
     28 CB         25.9009   27.6393   -2.1764 C.3       3 UNK        -0.2001 
     29 N          28.1255   26.5711   -2.1176 N.am      3 UNK        -0.4354 
     30 C          29.0219   27.2755   -2.8167 C.2       2 UNK         0.4964 
     31 O          28.7572   27.8733   -3.8603 O.2       2 UNK        -0.5047 
     32 CA         30.4592   27.3353   -2.2631 C.3       2 UNK         0.0288 
     33 CB         30.7477   28.7143   -1.6429 C.3       2 UNK        -0.2113 
     34 N          30.7442   26.3005   -1.2638 N.am      2 UNK        -0.4145 
     35 C          31.0652   25.0317   -1.5468 C.2       1 UNK         0.5006 
     36 O          31.1611   24.5867   -2.6950 O.2       1 UNK        -0.5103 
     37 C          25.6407   28.0024    2.1423 C.2       5 UNK         0.5055 
     38 O          24.6881   28.5596    1.5889 O.2       5 UNK        -0.5220 
     39 N          26.8139   28.5981    2.3809 N.am      6 UNK        -0.4450 
     40 CA         27.1148   29.9895    2.0588 C.3       6 UNK         0.0367 
     41 CB         27.3063   30.1723    0.5395 C.3       6 UNK        -0.1929 
     42 C          28.3767   30.4153    2.8101 C.2       6 UNK         0.5070 
     43 O          29.3292   29.6386    2.8917 O.2       6 UNK        -0.5237 
     44 N          28.3874   31.6678    3.2829 N.am      7 UNK        -0.4739 
     45 CA         29.5073   32.2974    3.9960 C.3       7 UNK         0.0276 
     46 CB         28.9977   33.5716    4.6909 C.3       7 UNK        -0.1927 
     47 C          30.7304   32.6106    3.1097 C.2       7 UNK         0.5013 
     48 O          31.7650   33.0207    3.6360 O.2       7 UNK        -0.5193 
     49 N          30.5958   32.4215    1.7894 N.am      8 UNK        -0.4253 
     50 CA         31.6751   32.5203    0.8056 C.3       8 UNK         0.0242 
     51 CB         31.0665   32.5349   -0.6064 C.3       8 UNK        -0.2000 
     52 C          32.7168   31.3923    0.9320 C.2       8 UNK         0.4948 
     53 O          33.8611   31.5896    0.5204 O.2       8 UNK        -0.5275 
     54 N          32.3158   30.2402    1.4887 N.am      9 UNK        -0.4246 
     55 CA         33.2093   29.1285    1.8074 C.3       9 UNK         0.0261 
     56 CB         32.3874   27.8336    1.8826 C.3       9 UNK        -0.1959 
     57 C          33.9439   29.3911    3.1313 C.2       9 UNK         0.5033 
     58 O          33.3572   29.9465    4.0626 O.2       9 UNK        -0.5390 
     59 N          35.2048   28.9534    3.2146 N.am      10 UNK        -0.4215 
     60 CA         36.0684   29.1145    4.3873 C.3       10 UNK         0.0240 
     61 CB         37.5368   29.1514    3.9210 C.3       10 UNK        -0.1982 
     62 C          35.8071   28.0242    5.4454 C.2       10 UNK         0.4970 
     63 O          36.7153   27.2572    5.7714 O.2       10 UNK        -0.4916 
     64 N          34.5695   27.9611    5.9534 N.am      11 UNK        -0.4279 
     65 CA         34.1526   27.0182    7.0062 C.3       11 UNK         0.1003 
     66 C          34.6313   27.3774    8.4448 C.2       11 UNK         0.5709 
     67 N          35.1884   28.5585    8.6872 N.am      11 UNK        -0.7358 
     68 O          34.5112   26.5597    9.3544 O.2       11 UNK        -0.4999 
     69 C69        32.6353   26.7012    6.9411 C.3       12 UNK        -0.0954 
     70 S70        31.5418   28.1258    7.2823 S.3       12 UNK        -0.2268 
     71 C71        30.6941   28.3612    5.6897 C.3       12 UNK         0.0203 
     72 H72        33.5865   21.1382   -1.8025 H         1 UNK         0.0888 
     73 H73        34.8454   21.3522   -0.5841 H         1 UNK         0.0888 
     74 H74        33.5366   20.1988   -0.3095 H         1 UNK         0.0888 
     75 H75        32.1305   22.8694   -1.8117 H         1 UNK         0.3017 
     76 H76        31.9108   24.6737    0.3863 H         1 UNK         0.0873 
     77 H77        29.3000   23.2707   -0.4255 H         1 UNK         0.0745 
     78 H78        30.2205   22.7298    0.9391 H         1 UNK         0.0745 
     79 H79        29.0531   23.2774    3.1765 H         1 UNK         0.0705 
     80 H80        30.6594   23.9749    3.1171 H         1 UNK         0.0705 
     81 H81        31.0759   26.2672    3.9830 H         1 UNK         0.1334 
     82 H82        28.1644   27.9637    6.6325 H         1 UNK         0.1417 
     83 H83        27.2469   24.4025    4.4168 H         1 UNK         0.1562 
     84 H84        26.2120   26.4942    7.2395 H         1 UNK         0.0748 
     85 H85        25.7452   25.1620    6.2154 H         1 UNK         0.0748 
     86 H86        23.5795   26.5302    3.5789 H         1 UNK         0.0940 
     87 H87        24.6288   25.2448    4.0867 H         1 UNK         0.0940 
     88 H88        26.4956   26.1232    2.7141 H         1 UNK         0.0703 
     89 H89        24.6412   26.5234    0.6632 H         1 UNK         0.3081 
     90 H90        24.7874   23.1626   -0.4986 H         1 UNK         0.0719 
     91 H91        22.4422   25.1178   -0.1718 H         1 UNK         0.0809 
     92 H92        22.5378   23.8008   -1.3413 H         1 UNK         0.0809 
     93 H93        22.4693   23.4479    0.3769 H         1 UNK         0.0809 
     94 H94        24.3165   25.7923   -1.6615 H         1 UNK         0.2990 
     95 H95        26.6443   26.0986   -3.5110 H         1 UNK         0.0690 
     96 H96        24.8701   27.5387   -2.5169 H         1 UNK         0.0788 
     97 H97        26.3168   28.5002   -2.6998 H         1 UNK         0.0788 
     98 H98        25.8806   27.8808   -1.1133 H         1 UNK         0.0788 
     99 H99        28.4396   26.0349   -1.3180 H         1 UNK         0.2993 
    100 H100       31.1329   27.1988   -3.1122 H         1 UNK         0.0949 
    101 H101       31.7989   28.8141   -1.3713 H         1 UNK         0.0767 
    102 H102       30.5216   29.5165   -2.3469 H         1 UNK         0.0767 
    103 H103       30.1543   28.8885   -0.7455 H         1 UNK         0.0767 
    104 H104       30.6424   26.5664   -0.2948 H         1 UNK         0.3013 
    105 H105       27.5628   28.1004    2.8491 H         1 UNK         0.3121 
    106 H106       26.2826   30.6122    2.3949 H         1 UNK         0.0774 
    107 H107       27.6441   31.1812    0.2997 H         1 UNK         0.0815 
    108 H108       28.0430   29.4745    0.1419 H         1 UNK         0.0815 
    109 H109       26.3736   30.0157   -0.0014 H         1 UNK         0.0815 
    110 H110       27.5667   32.2425    3.1496 H         1 UNK         0.2987 
    111 H111       29.8503   31.6020    4.7653 H         1 UNK         0.0949 
    112 H112       28.6380   34.3078    3.9710 H         1 UNK         0.0806 
    113 H113       28.1843   33.3496    5.3819 H         1 UNK         0.0806 
    114 H114       29.7905   34.0453    5.2718 H         1 UNK         0.0806 
    115 H115       29.6986   32.1062    1.4535 H         1 UNK         0.3010 
    116 H116       32.1961   33.4665    0.9671 H         1 UNK         0.0829 
    117 H117       30.3987   33.3858   -0.7421 H         1 UNK         0.0813 
    118 H118       31.8452   32.6123   -1.3666 H         1 UNK         0.0813 
    119 H119       30.4996   31.6264   -0.8122 H         1 UNK         0.0813 
    120 H120       31.3780   30.1819    1.8657 H         1 UNK         0.3038 
    121 H121       33.9481   29.0213    1.0099 H         1 UNK         0.0769 
    122 H122       31.5207   27.9519    2.5321 H         1 UNK         0.0811 
    123 H123       32.9813   27.0012    2.2630 H         1 UNK         0.0811 
    124 H124       32.0241   27.5484    0.8978 H         1 UNK         0.0811 
    125 H125       35.6051   28.4640    2.4266 H         1 UNK         0.3204 
    126 H126       35.8528   30.0758    4.8591 H         1 UNK         0.0748 
    127 H127       38.2114   29.3070    4.7641 H         1 UNK         0.0771 
    128 H128       37.8319   28.2210    3.4339 H         1 UNK         0.0771 
    129 H129       37.7089   29.9670    3.2182 H         1 UNK         0.0771 
    130 H130       33.8769   28.6284    5.6320 H         1 UNK         0.2980 
    131 H131       34.6531   26.0731    6.7864 H         1 UNK         0.0545 
    132 H132       35.2851   29.2389    7.9515 H         1 UNK         0.3459 
    133 H133       35.4998   28.7747    9.6210 H         1 UNK         0.3459 
    134 H134       32.4053   26.2873    5.9606 H         1 UNK         0.0616 
    135 H135       32.3839   25.9111    7.6507 H         1 UNK         0.0616 
    136 H136       31.4342   28.4699    4.8989 H         1 UNK         0.0634 
    137 H137       30.1440   29.3024    5.7193 H         1 UNK         0.0634 
@<TRIPOS>BOND
     1    1    2 1    
     2    1   72 1    
     3    1   73 1    
     4    1   74 1    
     5    2    3 2    
     6    2    4 am   BACKBONE|DICT|INTERRES
     7    4    5 1    
     8    4   75 1    
     9    5    6 1    
    10    5   35 1    
    11    5   76 1    
    12    6    7 1    
    13    6   77 1    
    14    6   78 1    
    15    7    8 1    
    16    8    9 1    
    17    8   79 1    
    18    8   80 1    
    19    9   10 ar   
    20    9   14 ar   
    21   10   11 ar   
    22   10   81 1    
    23   11   12 ar   
    24   11   71 1    
    25   12   13 ar   
    26   12   82 1    
    27   13   14 ar   
    28   13   15 1    
    29   14   83 1    
    30   15   16 1    
    31   15   84 1    
    32   15   85 1    
    33   16   17 1    
    34   17   18 1    
    35   17   86 1    
    36   17   87 1    
    37   18   19 1    
    38   18   37 1    
    39   18   88 1    
    40   19   20 am   BACKBONE|DICT|INTERRES
    41   19   89 1    
    42   20   21 2    
    43   20   22 1    
    44   22   23 1    
    45   22   24 1    
    46   22   90 1    
    47   23   91 1    
    48   23   92 1    
    49   23   93 1    
    50   24   25 am   BACKBONE|DICT|INTERRES
    51   24   94 1    
    52   25   26 2    
    53   25   27 1    
    54   27   28 1    
    55   27   29 1    
    56   27   95 1    
    57   28   96 1    
    58   28   97 1    
    59   28   98 1    
    60   29   30 am   BACKBONE|DICT|INTERRES
    61   29   99 1    
    62   30   31 2    
    63   30   32 1    
    64   32   33 1    
    65   32   34 1    
    66   32  100 1    
    67   33  101 1    
    68   33  102 1    
    69   33  103 1    
    70   34   35 am   BACKBONE|DICT|INTERRES
    71   34  104 1    
    72   35   36 2    
    73   37   38 2    
    74   37   39 am   BACKBONE|DICT|INTERRES
    75   39   40 1    
    76   39  105 1    
    77   40   41 1    
    78   40   42 1    
    79   40  106 1    
    80   41  107 1    
    81   41  108 1    
    82   41  109 1    
    83   42   43 2    
    84   42   44 am   BACKBONE|DICT|INTERRES
    85   44   45 1    
    86   44  110 1    
    87   45   46 1    
    88   45   47 1    
    89   45  111 1    
    90   46  112 1    
    91   46  113 1    
    92   46  114 1    
    93   47   48 2    
    94   47   49 am   BACKBONE|DICT|INTERRES
    95   49   50 1    
    96   49  115 1    
    97   50   51 1    
    98   50   52 1    
    99   50  116 1    
   100   51  117 1    
   101   51  118 1    
   102   51  119 1    
   103   52   53 2    
   104   52   54 am   BACKBONE|DICT|INTERRES
   105   54   55 1    
   106   54  120 1    
   107   55   56 1    
   108   55   57 1    
   109   55  121 1    
   110   56  122 1    
   111   56  123 1    
   112   56  124 1    
   113   57   58 2    
   114   57   59 am   BACKBONE|DICT|INTERRES
   115   59   60 1    
   116   59  125 1    
   117   60   61 1    
   118   60   62 1    
   119   60  126 1    
   120   61  127 1    
   121   61  128 1    
   122   61  129 1    
   123   62   63 2    
   124   62   64 am   BACKBONE|DICT|INTERRES
   125   64   65 1    
   126   64  130 1    
   127   65   66 1    
   128   65   69 1    
   129   65  131 1    
   130   66   67 am   BACKBONE|DICT|INTERRES
   131   66   68 2    
   132   67  132 1    
   133   67  133 1    
   134   69   70 1    
   135   69  134 1    
   136   69  135 1    
   137   70   71 1    
   138   71  136 1    
   139   71  137 1    
@<TRIPOS>SUBSTRUCTURE
     1 UNK         1 GROUP             0       ****    0 ROOT    
