@<TRIPOS>MOLECULE
3R136
137   139    1
SMALL
USER_CHARGES


@<TRIPOS>ATOM
      1 CA         28.8896   19.7898    2.1651 C.3       0 UNK        -0.1979 
      2 C          28.8604   20.0550    0.6668 C.2       0 UNK         0.4864 
      3 O          29.5250   19.3501   -0.0938 O.2       0 UNK        -0.5359 
      4 N          28.0989   21.0665    0.2414 N.am      1 UNK        -0.4318 
      5 CA         27.9407   21.5000   -1.1457 C.3       1 UNK         0.0824 
      6 C6         29.1923   22.2355   -1.7074 C.3       12 UNK        -0.0944 
      7 S7         29.7100   23.6812   -0.7155 S.3       12 UNK        -0.2672 
      8 C8         31.2740   23.0799   -0.0066 C.3       12 UNK         0.0333 
      9 C9         31.5851   23.8076    1.2891 C.ar      12 UNK        -0.0807 
     10 C10        32.2908   25.0144    1.2770 C.ar      12 UNK        -0.0894 
     11 C11        32.5349   25.7024    2.4702 C.ar      12 UNK        -0.0804 
     12 C12        32.0785   25.1674    3.6795 C.ar      12 UNK        -0.0824 
     13 C13        31.3648   23.9659    3.6993 C.ar      12 UNK        -0.0762 
     14 C14        31.1314   23.2849    2.5025 C.ar      12 UNK        -0.0782 
     15 C15        30.7937   23.4276    5.0015 C.3       12 UNK         0.0230 
     16 S16        28.9903   23.6802    5.0811 S.3       12 UNK        -0.2608 
     17 C17        28.8719   25.4970    5.2409 C.3       12 UNK        -0.0989 
     18 CA         28.7010   26.2345    3.8806 C.3       5 UNK         0.0716 
     19 N          27.6002   25.7294    3.0538 N.am      5 UNK        -0.4135 
     20 C          26.2917   25.7888    3.3321 C.2       4 UNK         0.5031 
     21 O          25.8291   26.2487    4.3779 O.2       4 UNK        -0.5229 
     22 CA         25.3462   25.2618    2.2326 C.3       4 UNK         0.0329 
     23 CB         23.9055   25.7931    2.3868 C.3       4 UNK        -0.2001 
     24 N          25.8283   25.5004    0.8628 N.am      4 UNK        -0.4303 
     25 C          26.1400   26.6840    0.3047 C.2       3 UNK         0.5044 
     26 O          26.1716   27.7424    0.9323 O.2       3 UNK        -0.5152 
     27 CA         26.5157   26.7108   -1.1909 C.3       3 UNK         0.0319 
     28 CB         27.9788   27.1450   -1.3697 C.3       3 UNK        -0.2001 
     29 N          26.3062   25.4342   -1.8780 N.am      3 UNK        -0.4354 
     30 C          25.1097   24.9348   -2.2223 C.2       2 UNK         0.4964 
     31 O          24.0508   25.5475   -2.0833 O.2       2 UNK        -0.5047 
     32 CA         25.0753   23.5017   -2.7911 C.3       2 UNK         0.0288 
     33 CB         24.8871   23.5358   -4.3170 C.3       2 UNK        -0.2113 
     34 N          26.2516   22.6804   -2.4727 N.am      2 UNK        -0.4145 
     35 C          26.6630   22.3533   -1.2386 C.2       1 UNK         0.5006 
     36 O          26.0966   22.7308   -0.2064 O.2       1 UNK        -0.5103 
     37 C          28.6930   27.7743    4.0356 C.2       5 UNK         0.5055 
     38 O          29.2244   28.2876    5.0220 O.2       5 UNK        -0.5220 
     39 N          28.1257   28.4916    3.0551 N.am      6 UNK        -0.4450 
     40 CA         28.0880   29.9541    2.9909 C.3       6 UNK         0.0367 
     41 CB         26.6352   30.4291    3.1805 C.3       6 UNK        -0.1929 
     42 C          28.7085   30.4627    1.6768 C.2       6 UNK         0.5070 
     43 O          28.3020   31.5115    1.1750 O.2       6 UNK        -0.5237 
     44 N          29.6866   29.7186    1.1359 N.am      7 UNK        -0.4739 
     45 CA         30.4121   30.0565   -0.0967 C.3       7 UNK         0.0276 
     46 CB         31.2571   28.8502   -0.5378 C.3       7 UNK        -0.1927 
     47 C          31.3052   31.3043    0.0394 C.2       7 UNK         0.5013 
     48 O          31.5033   32.0202   -0.9429 O.2       7 UNK        -0.5193 
     49 N          31.8160   31.5401    1.2516 N.am      8 UNK        -0.4253 
     50 CA         32.5927   32.7047    1.6569 C.3       8 UNK         0.0242 
     51 CB         34.0763   32.5056    1.2992 C.3       8 UNK        -0.2000 
     52 C          32.4100   32.8530    3.1681 C.2       8 UNK         0.4948 
     53 O          32.2597   31.8376    3.8523 O.2       8 UNK        -0.5275 
     54 N          32.4566   34.0913    3.6755 N.am      9 UNK        -0.4246 
     55 CA         32.2197   34.4246    5.0883 C.3       9 UNK         0.0261 
     56 CB         32.2212   35.9529    5.2564 C.3       9 UNK        -0.1959 
     57 C          33.2043   33.7750    6.0802 C.2       9 UNK         0.5033 
     58 O          32.8328   33.5348    7.2295 O.2       9 UNK        -0.5390 
     59 N          34.4290   33.4921    5.6187 N.am      10 UNK        -0.4215 
     60 CA         35.4753   32.8097    6.3827 C.3       10 UNK         0.0240 
     61 CB         36.8444   33.2316    5.8210 C.3       10 UNK        -0.1982 
     62 C          35.3451   31.2730    6.3786 C.2       10 UNK         0.4970 
     63 O          36.0793   30.6229    7.1243 O.2       10 UNK        -0.4916 
     64 N          34.4619   30.7174    5.5387 N.am      11 UNK        -0.4279 
     65 CA         34.2968   29.2743    5.3169 C.3       11 UNK         0.1003 
     66 C          32.8594   28.7910    5.6553 C.2       11 UNK         0.5709 
     67 N          31.8183   29.5226    5.2834 N.am      11 UNK        -0.7358 
     68 O          32.6888   27.7400    6.2683 O.2       11 UNK        -0.4999 
     69 C69        34.7320   28.9167    3.8688 C.3       12 UNK        -0.0954 
     70 S70        34.7021   27.1310    3.4895 S.3       12 UNK        -0.2268 
     71 C71        33.2124   27.0634    2.4463 C.3       12 UNK         0.0203 
     72 H72        28.3432   20.5497    2.7241 H         1 UNK         0.0888 
     73 H73        28.4435   18.8199    2.3830 H         1 UNK         0.0888 
     74 H74        29.9180   19.7805    2.5252 H         1 UNK         0.0888 
     75 H75        27.5265   21.5969    0.8874 H         1 UNK         0.3017 
     76 H76        27.7614   20.6091   -1.7515 H         1 UNK         0.0873 
     77 H77        29.0195   22.5712   -2.7311 H         1 UNK         0.0745 
     78 H78        30.0222   21.5319   -1.7841 H         1 UNK         0.0745 
     79 H79        31.2126   22.0074    0.1835 H         1 UNK         0.0705 
     80 H80        32.0789   23.2208   -0.7295 H         1 UNK         0.0705 
     81 H81        32.6212   25.4302    0.3347 H         1 UNK         0.1334 
     82 H82        32.2443   25.7101    4.6004 H         1 UNK         0.1417 
     83 H83        30.5638   22.3647    2.5138 H         1 UNK         0.1562 
     84 H84        31.2706   23.8961    5.8640 H         1 UNK         0.0748 
     85 H85        31.0059   22.3601    5.0760 H         1 UNK         0.0748 
     86 H86        29.7611   25.8557    5.7633 H         1 UNK         0.0940 
     87 H87        28.0316   25.7234    5.8993 H         1 UNK         0.0940 
     88 H88        29.5894   26.0374    3.2851 H         1 UNK         0.0703 
     89 H89        27.8719   25.3165    2.1734 H         1 UNK         0.3081 
     90 H90        25.3141   24.1784    2.3576 H         1 UNK         0.0719 
     91 H91        23.2500   25.3903    1.6146 H         1 UNK         0.0809 
     92 H92        23.8693   26.8814    2.3235 H         1 UNK         0.0809 
     93 H93        23.4818   25.5081    3.3505 H         1 UNK         0.0809 
     94 H94        25.8842   24.6685    0.2825 H         1 UNK         0.2990 
     95 H95        25.8811   27.4618   -1.6662 H         1 UNK         0.0690 
     96 H96        28.2566   27.1930   -2.4227 H         1 UNK         0.0788 
     97 H97        28.6666   26.4635   -0.8694 H         1 UNK         0.0788 
     98 H98        28.1407   28.1383   -0.9495 H         1 UNK         0.0788 
     99 H99        27.1259   24.8649   -2.0321 H         1 UNK         0.2993 
    100 H100       24.2061   23.0092   -2.3497 H         1 UNK         0.0949 
    101 H101       24.0017   24.1124   -4.5895 H         1 UNK         0.0767 
    102 H102       25.7408   23.9935   -4.8187 H         1 UNK         0.0767 
    103 H103       24.7541   22.5332   -4.7241 H         1 UNK         0.0767 
    104 H104       26.7756   22.3333   -3.2635 H         1 UNK         0.3013 
    105 H105       27.6458   28.0152    2.2964 H         1 UNK         0.3121 
    106 H106       28.6900   30.3876    3.7922 H         1 UNK         0.0774 
    107 H107       26.5768   31.5177    3.2104 H         1 UNK         0.0815 
    108 H108       25.9924   30.0878    2.3682 H         1 UNK         0.0815 
    109 H109       26.2173   30.0574    4.1161 H         1 UNK         0.0815 
    110 H110       29.9587   28.8713    1.6116 H         1 UNK         0.2987 
    111 H111       29.6733   30.2639   -0.8741 H         1 UNK         0.0949 
    112 H112       32.0556   28.6411    0.1723 H         1 UNK         0.0806 
    113 H113       30.6569   27.9475   -0.6422 H         1 UNK         0.0806 
    114 H114       31.7264   29.0392   -1.5043 H         1 UNK         0.0806 
    115 H115       31.5718   30.9249    2.0172 H         1 UNK         0.3010 
    116 H116       32.2014   33.5942    1.1583 H         1 UNK         0.0829 
    117 H117       34.2115   32.3816    0.2247 H         1 UNK         0.0813 
    118 H118       34.6724   33.3674    1.6017 H         1 UNK         0.0813 
    119 H119       34.4959   31.6271    1.7912 H         1 UNK         0.0813 
    120 H120       32.6022   34.8695    3.0475 H         1 UNK         0.3038 
    121 H121       31.2238   34.0563    5.3441 H         1 UNK         0.0769 
    122 H122       32.0214   36.2322    6.2921 H         1 UNK         0.0811 
    123 H123       31.4507   36.4216    4.6440 H         1 UNK         0.0811 
    124 H124       33.1824   36.3891    4.9816 H         1 UNK         0.0811 
    125 H125       34.6459   33.7361    4.6633 H         1 UNK         0.3204 
    126 H126       35.4221   33.1353    7.4239 H         1 UNK         0.0748 
    127 H127       37.6583   32.7824    6.3921 H         1 UNK         0.0771 
    128 H128       36.9677   32.9238    4.7817 H         1 UNK         0.0771 
    129 H129       36.9777   34.3126    5.8702 H         1 UNK         0.0771 
    130 H130       33.8361   31.3125    5.0086 H         1 UNK         0.2980 
    131 H131       34.9590   28.7260    5.9896 H         1 UNK         0.0545 
    132 H132       31.9417   30.3969    4.7774 H         1 UNK         0.3459 
    133 H133       30.8833   29.1660    5.4520 H         1 UNK         0.3459 
    134 H134       35.7554   29.2579    3.7061 H         1 UNK         0.0616 
    135 H135       34.1247   29.4610    3.1432 H         1 UNK         0.0616 
    136 H136       32.4857   27.8049    2.7810 H         1 UNK         0.0634 
    137 H137       33.4995   27.3397    1.4314 H         1 UNK         0.0634 
@<TRIPOS>BOND
     1    1    2 1    
     2    1   72 1    
     3    1   73 1    
     4    1   74 1    
     5    2    3 2    
     6    2    4 am   BACKBONE|DICT|INTERRES
     7    4    5 1    
     8    4   75 1    
     9    5    6 1    
    10    5   35 1    
    11    5   76 1    
    12    6    7 1    
    13    6   77 1    
    14    6   78 1    
    15    7    8 1    
    16    8    9 1    
    17    8   79 1    
    18    8   80 1    
    19    9   10 ar   
    20    9   14 ar   
    21   10   11 ar   
    22   10   81 1    
    23   11   12 ar   
    24   11   71 1    
    25   12   13 ar   
    26   12   82 1    
    27   13   14 ar   
    28   13   15 1    
    29   14   83 1    
    30   15   16 1    
    31   15   84 1    
    32   15   85 1    
    33   16   17 1    
    34   17   18 1    
    35   17   86 1    
    36   17   87 1    
    37   18   19 1    
    38   18   37 1    
    39   18   88 1    
    40   19   20 am   BACKBONE|DICT|INTERRES
    41   19   89 1    
    42   20   21 2    
    43   20   22 1    
    44   22   23 1    
    45   22   24 1    
    46   22   90 1    
    47   23   91 1    
    48   23   92 1    
    49   23   93 1    
    50   24   25 am   BACKBONE|DICT|INTERRES
    51   24   94 1    
    52   25   26 2    
    53   25   27 1    
    54   27   28 1    
    55   27   29 1    
    56   27   95 1    
    57   28   96 1    
    58   28   97 1    
    59   28   98 1    
    60   29   30 am   BACKBONE|DICT|INTERRES
    61   29   99 1    
    62   30   31 2    
    63   30   32 1    
    64   32   33 1    
    65   32   34 1    
    66   32  100 1    
    67   33  101 1    
    68   33  102 1    
    69   33  103 1    
    70   34   35 am   BACKBONE|DICT|INTERRES
    71   34  104 1    
    72   35   36 2    
    73   37   38 2    
    74   37   39 am   BACKBONE|DICT|INTERRES
    75   39   40 1    
    76   39  105 1    
    77   40   41 1    
    78   40   42 1    
    79   40  106 1    
    80   41  107 1    
    81   41  108 1    
    82   41  109 1    
    83   42   43 2    
    84   42   44 am   BACKBONE|DICT|INTERRES
    85   44   45 1    
    86   44  110 1    
    87   45   46 1    
    88   45   47 1    
    89   45  111 1    
    90   46  112 1    
    91   46  113 1    
    92   46  114 1    
    93   47   48 2    
    94   47   49 am   BACKBONE|DICT|INTERRES
    95   49   50 1    
    96   49  115 1    
    97   50   51 1    
    98   50   52 1    
    99   50  116 1    
   100   51  117 1    
   101   51  118 1    
   102   51  119 1    
   103   52   53 2    
   104   52   54 am   BACKBONE|DICT|INTERRES
   105   54   55 1    
   106   54  120 1    
   107   55   56 1    
   108   55   57 1    
   109   55  121 1    
   110   56  122 1    
   111   56  123 1    
   112   56  124 1    
   113   57   58 2    
   114   57   59 am   BACKBONE|DICT|INTERRES
   115   59   60 1    
   116   59  125 1    
   117   60   61 1    
   118   60   62 1    
   119   60  126 1    
   120   61  127 1    
   121   61  128 1    
   122   61  129 1    
   123   62   63 2    
   124   62   64 am   BACKBONE|DICT|INTERRES
   125   64   65 1    
   126   64  130 1    
   127   65   66 1    
   128   65   69 1    
   129   65  131 1    
   130   66   67 am   BACKBONE|DICT|INTERRES
   131   66   68 2    
   132   67  132 1    
   133   67  133 1    
   134   69   70 1    
   135   69  134 1    
   136   69  135 1    
   137   70   71 1    
   138   71  136 1    
   139   71  137 1    
@<TRIPOS>SUBSTRUCTURE
     1 UNK         1 GROUP             0       ****    0 ROOT    
