@<TRIPOS>MOLECULE
3R136
137   139    1
SMALL
USER_CHARGES


@<TRIPOS>ATOM
      1 CA         31.1042   25.6970    0.6023 C.3       0 UNK        -0.1979 
      2 C          29.7834   24.9507    0.6911 C.2       0 UNK         0.4864 
      3 O          28.7470   25.4916    0.3043 O.2       0 UNK        -0.5359 
      4 N          29.8119   23.7066    1.1835 N.am      1 UNK        -0.4318 
      5 CA         28.6292   22.8814    1.4666 C.3       1 UNK         0.0824 
      6 C6         28.9504   21.7194    2.4438 C.3       12 UNK        -0.0944 
      7 S7         29.9283   22.1751    3.9189 S.3       12 UNK        -0.2672 
      8 C8         28.9051   23.4601    4.7245 C.3       12 UNK         0.0333 
      9 C9         29.4397   24.8944    4.6325 C.ar      12 UNK        -0.0807 
     10 C10        30.7532   25.1967    4.2436 C.ar      12 UNK        -0.0894 
     11 C11        31.2189   26.5157    4.2495 C.ar      12 UNK        -0.0804 
     12 C12        30.3591   27.5470    4.6340 C.ar      12 UNK        -0.0824 
     13 C13        29.0491   27.2665    5.0299 C.ar      12 UNK        -0.0762 
     14 C14        28.5981   25.9419    5.0234 C.ar      12 UNK        -0.0782 
     15 C15        28.1470   28.3859    5.5338 C.3       12 UNK         0.0230 
     16 S16        26.6281   28.5690    4.5486 S.3       12 UNK        -0.2608 
     17 C17        27.2536   29.3153    3.0043 C.3       12 UNK        -0.0989 
     18 CA         27.2895   28.3098    1.8202 C.3       5 UNK         0.0716 
     19 N          26.0188   27.6203    1.5767 N.am      5 UNK        -0.4135 
     20 C          24.8363   28.1640    1.2573 C.2       4 UNK         0.5031 
     21 O          24.6291   29.3744    1.1550 O.2       4 UNK        -0.5229 
     22 CA         23.6974   27.1639    0.9678 C.3       4 UNK         0.0329 
     23 CB         22.3163   27.8419    0.8916 C.3       4 UNK        -0.2001 
     24 N          23.9388   26.4358   -0.2808 N.am      4 UNK        -0.4303 
     25 C          24.8578   25.4759   -0.4407 C.2       3 UNK         0.5044 
     26 O          25.5419   25.0357    0.4886 O.2       3 UNK        -0.5152 
     27 CA         25.0695   24.9467   -1.8669 C.3       3 UNK         0.0319 
     28 CB         25.1364   26.0741   -2.9174 C.3       3 UNK        -0.2001 
     29 N          26.3117   24.1821   -1.8785 N.am      3 UNK        -0.4354 
     30 C          26.5492   23.0756   -2.5907 C.2       2 UNK         0.4964 
     31 O          25.7811   22.6330   -3.4458 O.2       2 UNK        -0.5047 
     32 CA         27.8627   22.3227   -2.2983 C.3       2 UNK         0.0288 
     33 CB         28.9018   22.6157   -3.3935 C.3       2 UNK        -0.2113 
     34 N          28.4491   22.6431   -0.9925 N.am      2 UNK        -0.4145 
     35 C          27.9145   22.3447    0.2022 C.2       1 UNK         0.5006 
     36 O          26.8925   21.6683    0.3307 O.2       1 UNK        -0.5103 
     37 C          27.7918   28.9504    0.5106 C.2       5 UNK         0.5055 
     38 O          27.7712   30.1745    0.3689 O.2       5 UNK        -0.5220 
     39 N          28.2165   28.0999   -0.4374 N.am      6 UNK        -0.4450 
     40 CA         28.7736   28.4941   -1.7387 C.3       6 UNK         0.0367 
     41 CB         29.0093   27.2429   -2.6025 C.3       6 UNK        -0.1929 
     42 C          30.0753   29.3054   -1.6063 C.2       6 UNK         0.5070 
     43 O          30.3157   30.2119   -2.4037 O.2       6 UNK        -0.5237 
     44 N          30.8612   28.9853   -0.5725 N.am      7 UNK        -0.4739 
     45 CA         31.9523   29.8016   -0.0596 C.3       7 UNK         0.0276 
     46 CB         33.1895   28.9166    0.1792 C.3       7 UNK        -0.1927 
     47 C          31.4335   30.4210    1.2416 C.2       7 UNK         0.5013 
     48 O          31.4170   29.7453    2.2718 O.2       7 UNK        -0.5193 
     49 N          30.9607   31.6700    1.1672 N.am      8 UNK        -0.4253 
     50 CA         30.4005   32.4184    2.2951 C.3       8 UNK         0.0242 
     51 CB         29.4482   33.5004    1.7529 C.3       8 UNK        -0.2000 
     52 C          31.5179   32.9958    3.1839 C.2       8 UNK         0.4948 
     53 O          31.6922   34.2145    3.2493 O.2       8 UNK        -0.5275 
     54 N          32.2770   32.1035    3.8250 N.am      9 UNK        -0.4246 
     55 CA         33.4143   32.4031    4.6866 C.3       9 UNK         0.0261 
     56 CB         34.6786   32.5814    3.8240 C.3       9 UNK        -0.1959 
     57 C          33.5916   31.2605    5.6921 C.2       9 UNK         0.5033 
     58 O          33.0203   30.1811    5.5089 O.2       9 UNK        -0.5390 
     59 N          34.4044   31.5078    6.7261 N.am      10 UNK        -0.4215 
     60 CA         34.7946   30.5283    7.7410 C.3       10 UNK         0.0240 
     61 CB         35.2957   31.2740    8.9923 C.3       10 UNK        -0.1982 
     62 C          35.8431   29.5503    7.1793 C.2       10 UNK         0.4970 
     63 O          37.0338   29.6881    7.4658 O.2       10 UNK        -0.4916 
     64 N          35.3768   28.6017    6.3607 N.am      11 UNK        -0.4279 
     65 CA         36.1810   27.5520    5.7154 C.3       11 UNK         0.1003 
     66 C          36.8167   26.5006    6.6749 C.2       11 UNK         0.5709 
     67 N          36.3997   26.4046    7.9322 N.am      11 UNK        -0.7358 
     68 O          37.7159   25.7670    6.2705 O.2       11 UNK        -0.4999 
     69 C69        35.4019   26.8792    4.5530 C.3       12 UNK        -0.0954 
     70 S70        33.8224   26.1302    5.0850 S.3       12 UNK        -0.2268 
     71 C71        32.6605   26.8258    3.8710 C.3       12 UNK         0.0203 
     72 H72        31.3189   25.9757   -0.4283 H         1 UNK         0.0888 
     73 H73        31.0524   26.6022    1.2056 H         1 UNK         0.0888 
     74 H74        31.9351   25.0942    0.9681 H         1 UNK         0.0888 
     75 H75        30.6909   23.3074    1.4807 H         1 UNK         0.3017 
     76 H76        27.9002   23.5332    1.9528 H         1 UNK         0.0873 
     77 H77        29.5069   20.9361    1.9250 H         1 UNK         0.0745 
     78 H78        28.0268   21.2504    2.7889 H         1 UNK         0.0745 
     79 H79        27.8887   23.4176    4.3313 H         1 UNK         0.0705 
     80 H80        28.8277   23.2024    5.7816 H         1 UNK         0.0705 
     81 H81        31.4401   24.4112    3.9646 H         1 UNK         0.1334 
     82 H82        30.7230   28.5662    4.6500 H         1 UNK         0.1417 
     83 H83        27.5894   25.7261    5.3495 H         1 UNK         0.1562 
     84 H84        28.6769   29.3395    5.5608 H         1 UNK         0.0748 
     85 H85        27.8665   28.1671    6.5649 H         1 UNK         0.0748 
     86 H86        28.2509   29.7246    3.1763 H         1 UNK         0.0940 
     87 H87        26.6176   30.1702    2.7681 H         1 UNK         0.0940 
     88 H88        28.0085   27.5320    2.0842 H         1 UNK         0.0703 
     89 H89        26.0749   26.6066    1.5338 H         1 UNK         0.3081 
     90 H90        23.6697   26.4490    1.7934 H         1 UNK         0.0719 
     91 H91        22.2589   28.5561    0.0691 H         1 UNK         0.0809 
     92 H92        21.5213   27.1086    0.7556 H         1 UNK         0.0809 
     93 H93        22.0990   28.3863    1.8116 H         1 UNK         0.0809 
     94 H94        23.4339   26.7599   -1.0930 H         1 UNK         0.2990 
     95 H95        24.2327   24.2840   -2.0974 H         1 UNK         0.0690 
     96 H96        25.4784   25.7002   -3.8827 H         1 UNK         0.0788 
     97 H97        25.8097   26.8750   -2.6110 H         1 UNK         0.0788 
     98 H98        24.1549   26.5194   -3.0816 H         1 UNK         0.0788 
     99 H99        26.9600   24.4326   -1.1402 H         1 UNK         0.2993 
    100 H100       27.6341   21.2548   -2.3119 H         1 UNK         0.0949 
    101 H101       28.5124   22.3593   -4.3799 H         1 UNK         0.0767 
    102 H102       29.1771   23.6712   -3.4161 H         1 UNK         0.0767 
    103 H103       29.8111   22.0329   -3.2451 H         1 UNK         0.0767 
    104 H104       29.2878   23.2044   -0.9979 H         1 UNK         0.3013 
    105 H105       28.2394   27.1028   -0.2175 H         1 UNK         0.3121 
    106 H106       28.0352   29.1255   -2.2371 H         1 UNK         0.0774 
    107 H107       29.3459   27.5203   -3.6022 H         1 UNK         0.0815 
    108 H108       29.7704   26.5910   -2.1746 H         1 UNK         0.0815 
    109 H109       28.1014   26.6538   -2.7197 H         1 UNK         0.0815 
    110 H110       30.5335   28.2609    0.0489 H         1 UNK         0.2987 
    111 H111       32.2217   30.5945   -0.7611 H         1 UNK         0.0949 
    112 H112       34.0148   29.5062    0.5800 H         1 UNK         0.0806 
    113 H113       32.9926   28.1125    0.8885 H         1 UNK         0.0806 
    114 H114       33.5348   28.4633   -0.7500 H         1 UNK         0.0806 
    115 H115       30.9968   32.1534    0.2811 H         1 UNK         0.3010 
    116 H116       29.8087   31.7399    2.9135 H         1 UNK         0.0829 
    117 H117       28.6336   33.0563    1.1797 H         1 UNK         0.0813 
    118 H118       28.9972   34.0674    2.5684 H         1 UNK         0.0813 
    119 H119       29.9656   34.2112    1.1073 H         1 UNK         0.0813 
    120 H120       32.0658   31.1126    3.7288 H         1 UNK         0.3038 
    121 H121       33.2135   33.3203    5.2447 H         1 UNK         0.0769 
    122 H122       34.9081   31.6770    3.2588 H         1 UNK         0.0811 
    123 H123       35.5501   32.8140    4.4371 H         1 UNK         0.0811 
    124 H124       34.5614   33.3984    3.1118 H         1 UNK         0.0811 
    125 H125       34.8534   32.4109    6.7818 H         1 UNK         0.3204 
    126 H126       33.9155   29.9479    8.0305 H         1 UNK         0.0748 
    127 H127       34.5149   31.9064    9.4153 H         1 UNK         0.0771 
    128 H128       35.5975   30.5708    9.7699 H         1 UNK         0.0771 
    129 H129       36.1568   31.9067    8.7729 H         1 UNK         0.0771 
    130 H130       34.3897   28.6089    6.1318 H         1 UNK         0.2980 
    131 H131       37.0316   28.0636    5.2612 H         1 UNK         0.0545 
    132 H132       36.8234   25.7243    8.5428 H         1 UNK         0.3459 
    133 H133       35.6563   26.9941    8.2690 H         1 UNK         0.3459 
    134 H134       35.2046   27.6219    3.7784 H         1 UNK         0.0616 
    135 H135       36.0071   26.1095    4.0707 H         1 UNK         0.0616 
    136 H136       32.8836   26.4144    2.8869 H         1 UNK         0.0634 
    137 H137       32.8140   27.9041    3.8024 H         1 UNK         0.0634 
@<TRIPOS>BOND
     1    1    2 1    
     2    1   72 1    
     3    1   73 1    
     4    1   74 1    
     5    2    3 2    
     6    2    4 am   BACKBONE|DICT|INTERRES
     7    4    5 1    
     8    4   75 1    
     9    5    6 1    
    10    5   35 1    
    11    5   76 1    
    12    6    7 1    
    13    6   77 1    
    14    6   78 1    
    15    7    8 1    
    16    8    9 1    
    17    8   79 1    
    18    8   80 1    
    19    9   10 ar   
    20    9   14 ar   
    21   10   11 ar   
    22   10   81 1    
    23   11   12 ar   
    24   11   71 1    
    25   12   13 ar   
    26   12   82 1    
    27   13   14 ar   
    28   13   15 1    
    29   14   83 1    
    30   15   16 1    
    31   15   84 1    
    32   15   85 1    
    33   16   17 1    
    34   17   18 1    
    35   17   86 1    
    36   17   87 1    
    37   18   19 1    
    38   18   37 1    
    39   18   88 1    
    40   19   20 am   BACKBONE|DICT|INTERRES
    41   19   89 1    
    42   20   21 2    
    43   20   22 1    
    44   22   23 1    
    45   22   24 1    
    46   22   90 1    
    47   23   91 1    
    48   23   92 1    
    49   23   93 1    
    50   24   25 am   BACKBONE|DICT|INTERRES
    51   24   94 1    
    52   25   26 2    
    53   25   27 1    
    54   27   28 1    
    55   27   29 1    
    56   27   95 1    
    57   28   96 1    
    58   28   97 1    
    59   28   98 1    
    60   29   30 am   BACKBONE|DICT|INTERRES
    61   29   99 1    
    62   30   31 2    
    63   30   32 1    
    64   32   33 1    
    65   32   34 1    
    66   32  100 1    
    67   33  101 1    
    68   33  102 1    
    69   33  103 1    
    70   34   35 am   BACKBONE|DICT|INTERRES
    71   34  104 1    
    72   35   36 2    
    73   37   38 2    
    74   37   39 am   BACKBONE|DICT|INTERRES
    75   39   40 1    
    76   39  105 1    
    77   40   41 1    
    78   40   42 1    
    79   40  106 1    
    80   41  107 1    
    81   41  108 1    
    82   41  109 1    
    83   42   43 2    
    84   42   44 am   BACKBONE|DICT|INTERRES
    85   44   45 1    
    86   44  110 1    
    87   45   46 1    
    88   45   47 1    
    89   45  111 1    
    90   46  112 1    
    91   46  113 1    
    92   46  114 1    
    93   47   48 2    
    94   47   49 am   BACKBONE|DICT|INTERRES
    95   49   50 1    
    96   49  115 1    
    97   50   51 1    
    98   50   52 1    
    99   50  116 1    
   100   51  117 1    
   101   51  118 1    
   102   51  119 1    
   103   52   53 2    
   104   52   54 am   BACKBONE|DICT|INTERRES
   105   54   55 1    
   106   54  120 1    
   107   55   56 1    
   108   55   57 1    
   109   55  121 1    
   110   56  122 1    
   111   56  123 1    
   112   56  124 1    
   113   57   58 2    
   114   57   59 am   BACKBONE|DICT|INTERRES
   115   59   60 1    
   116   59  125 1    
   117   60   61 1    
   118   60   62 1    
   119   60  126 1    
   120   61  127 1    
   121   61  128 1    
   122   61  129 1    
   123   62   63 2    
   124   62   64 am   BACKBONE|DICT|INTERRES
   125   64   65 1    
   126   64  130 1    
   127   65   66 1    
   128   65   69 1    
   129   65  131 1    
   130   66   67 am   BACKBONE|DICT|INTERRES
   131   66   68 2    
   132   67  132 1    
   133   67  133 1    
   134   69   70 1    
   135   69  134 1    
   136   69  135 1    
   137   70   71 1    
   138   71  136 1    
   139   71  137 1    
@<TRIPOS>SUBSTRUCTURE
     1 UNK         1 GROUP             0       ****    0 ROOT    
