@<TRIPOS>MOLECULE
3R136
137   139    1
SMALL
USER_CHARGES


@<TRIPOS>ATOM
      1 CA         28.2906   19.5796    0.8593 C.3       0 UNK        -0.1979 
      2 C          28.5205   21.0742    1.0258 C.2       0 UNK         0.4864 
      3 O          27.9939   21.8643    0.2427 O.2       0 UNK        -0.5359 
      4 N          29.2993   21.4671    2.0432 N.am      1 UNK        -0.4318 
      5 CA         29.6443   22.8630    2.3460 C.3       1 UNK         0.0824 
      6 C6         30.8842   22.9621    3.2648 C.3       12 UNK        -0.0944 
      7 S7         32.3874   22.2496    2.5164 S.3       12 UNK        -0.2672 
      8 C8         33.6266   23.5602    2.8365 C.3       12 UNK         0.0333 
      9 C9         33.4223   24.8897    2.1011 C.ar      12 UNK        -0.0807 
     10 C10        34.2182   25.9825    2.4655 C.ar      12 UNK        -0.0894 
     11 C11        34.0939   27.2121    1.8098 C.ar      12 UNK        -0.0804 
     12 C12        33.1483   27.3538    0.7895 C.ar      12 UNK        -0.0824 
     13 C13        32.3501   26.2726    0.4064 C.ar      12 UNK        -0.0762 
     14 C14        32.5000   25.0459    1.0574 C.ar      12 UNK        -0.0782 
     15 C15        31.3514   26.4038   -0.7361 C.3       12 UNK         0.0230 
     16 S16        29.6670   26.7350   -0.1303 S.3       12 UNK        -0.2608 
     17 C17        29.7096   28.5434    0.1052 C.3       12 UNK        -0.0989 
     18 CA         28.7901   29.2816   -0.8947 C.3       5 UNK         0.0716 
     19 N          27.3843   28.9773   -0.6322 N.am      5 UNK        -0.4135 
     20 C          26.3447   29.2729   -1.4178 C.2       4 UNK         0.5031 
     21 O          26.4580   29.7750   -2.5382 O.2       4 UNK        -0.5229 
     22 CA         24.9472   28.9345   -0.8516 C.3       4 UNK         0.0329 
     23 CB         23.8087   29.3247   -1.8134 C.3       4 UNK        -0.2001 
     24 N          24.8002   27.5182   -0.4945 N.am      4 UNK        -0.4303 
     25 C          25.3627   26.9144    0.5606 C.2       3 UNK         0.5044 
     26 O          26.0796   27.4996    1.3777 O.2       3 UNK        -0.5152 
     27 CA         25.0986   25.4107    0.7093 C.3       3 UNK         0.0319 
     28 CB         25.6815   24.6157   -0.4749 C.3       3 UNK        -0.2001 
     29 N          25.7161   24.9402    1.9442 N.am      3 UNK        -0.4354 
     30 C          25.2821   23.9431    2.7188 C.2       2 UNK         0.4964 
     31 O          24.2571   23.2960    2.4952 O.2       2 UNK        -0.5047 
     32 CA         26.1818   23.5846    3.9176 C.3       2 UNK         0.0288 
     33 CB         25.5049   22.6136    4.9031 C.3       2 UNK        -0.2113 
     34 N          27.4326   22.9872    3.4468 N.am      2 UNK        -0.4145 
     35 C          28.4716   23.6702    2.9444 C.2       1 UNK         0.5006 
     36 O          28.5261   24.9011    2.9365 O.2       1 UNK        -0.5103 
     37 C          29.0232   30.8043   -0.8345 C.2       5 UNK         0.5055 
     38 O          28.4908   31.4685    0.0585 O.2       5 UNK        -0.5220 
     39 N          29.8193   31.3240   -1.7794 N.am      6 UNK        -0.4450 
     40 CA         30.0956   32.7563   -1.9380 C.3       6 UNK         0.0367 
     41 CB         30.7682   32.9975   -3.2995 C.3       6 UNK        -0.1929 
     42 C          30.9447   33.3603   -0.8059 C.2       6 UNK         0.5070 
     43 O          30.7733   34.5386   -0.4925 O.2       6 UNK        -0.5237 
     44 N          31.8451   32.5551   -0.2256 N.am      7 UNK        -0.4739 
     45 CA         32.6735   32.9285    0.9218 C.3       7 UNK         0.0276 
     46 CB         33.9152   32.0204    0.9779 C.3       7 UNK        -0.1927 
     47 C          31.8489   32.8776    2.2181 C.2       7 UNK         0.5013 
     48 O          31.5005   33.9253    2.7640 O.2       7 UNK        -0.5193 
     49 N          31.5293   31.6591    2.6622 N.am      8 UNK        -0.4253 
     50 CA         30.6703   31.3444    3.7965 C.3       8 UNK         0.0242 
     51 CB         31.4118   31.5887    5.1252 C.3       8 UNK        -0.2000 
     52 C          30.2734   29.8729    3.6637 C.2       8 UNK         0.4948 
     53 O          31.0366   29.0921    3.0906 O.2       8 UNK        -0.5275 
     54 N          29.1044   29.5082    4.2019 N.am      9 UNK        -0.4246 
     55 CA         28.6530   28.1194    4.2864 C.3       9 UNK         0.0261 
     56 CB         27.1449   28.0845    4.5887 C.3       9 UNK        -0.1959 
     57 C          29.4662   27.3933    5.3691 C.2       9 UNK         0.5033 
     58 O          29.2704   27.6794    6.5524 O.2       9 UNK        -0.5390 
     59 N          30.3786   26.5127    4.9354 N.am      10 UNK        -0.4215 
     60 CA         31.3550   25.7749    5.7451 C.3       10 UNK         0.0240 
     61 CB         30.6518   24.7683    6.6811 C.3       10 UNK        -0.1982 
     62 C          32.3239   26.7175    6.4788 C.2       10 UNK         0.4970 
     63 O          32.2340   26.8731    7.6983 O.2       10 UNK        -0.4916 
     64 N          33.2249   27.3299    5.6980 N.am      11 UNK        -0.4279 
     65 CA         34.3110   28.2189    6.1420 C.3       11 UNK         0.1003 
     66 C          35.1566   27.6476    7.3163 C.2       11 UNK         0.5709 
     67 N          35.4986   28.4721    8.2972 N.am      11 UNK        -0.7358 
     68 O          35.5447   26.4804    7.3155 O.2       11 UNK        -0.4999 
     69 C69        35.2559   28.5786    4.9663 C.3       12 UNK        -0.0954 
     70 S70        34.4091   29.3631    3.5549 S.3       12 UNK        -0.2268 
     71 C71        35.0175   28.3738    2.1528 C.3       12 UNK         0.0203 
     72 H72        28.6468   19.2527   -0.1173 H         1 UNK         0.0888 
     73 H73        28.8104   18.9989    1.6212 H         1 UNK         0.0888 
     74 H74        27.2267   19.3537    0.9272 H         1 UNK         0.0888 
     75 H75        29.7286   20.7728    2.6389 H         1 UNK         0.3017 
     76 H76        29.8825   23.3524    1.3998 H         1 UNK         0.0873 
     77 H77        31.0807   24.0095    3.4813 H         1 UNK         0.0745 
     78 H78        30.7042   22.4739    4.2243 H         1 UNK         0.0745 
     79 H79        33.6639   23.7420    3.9116 H         1 UNK         0.0705 
     80 H80        34.6061   23.1679    2.5598 H         1 UNK         0.0705 
     81 H81        34.9562   25.8681    3.2478 H         1 UNK         0.1334 
     82 H82        33.0520   28.3009    0.2780 H         1 UNK         0.1417 
     83 H83        31.8962   24.2140    0.7293 H         1 UNK         0.1562 
     84 H84        31.3356   25.4770   -1.3116 H         1 UNK         0.0748 
     85 H85        31.6585   27.1834   -1.4349 H         1 UNK         0.0748 
     86 H86        30.7386   28.8975    0.0336 H         1 UNK         0.0940 
     87 H87        29.3901   28.7530    1.1256 H         1 UNK         0.0940 
     88 H88        29.0215   28.9372   -1.9051 H         1 UNK         0.0703 
     89 H89        27.1772   28.5373    0.2605 H         1 UNK         0.3081 
     90 H90        24.8258   29.5279    0.0573 H         1 UNK         0.0719 
     91 H91        23.8603   28.7657   -2.7486 H         1 UNK         0.0809 
     92 H92        22.8310   29.1438   -1.3665 H         1 UNK         0.0809 
     93 H93        23.8549   30.3854   -2.0644 H         1 UNK         0.0809 
     94 H94        24.2513   26.9569   -1.1297 H         1 UNK         0.2990 
     95 H95        24.0177   25.2635    0.7582 H         1 UNK         0.0690 
     96 H96        25.5196   23.5446   -0.3505 H         1 UNK         0.0788 
     97 H97        26.7566   24.7761   -0.5731 H         1 UNK         0.0788 
     98 H98        25.2182   24.9017   -1.4195 H         1 UNK         0.0788 
     99 H99        26.5644   25.4334    2.2077 H         1 UNK         0.2993 
    100 H100       26.4038   24.5084    4.4568 H         1 UNK         0.0949 
    101 H101       25.2714   21.6562    4.4352 H         1 UNK         0.0767 
    102 H102       26.1419   22.4183    5.7660 H         1 UNK         0.0767 
    103 H103       24.5696   23.0302    5.2795 H         1 UNK         0.0767 
    104 H104       27.4576   21.9799    3.3898 H         1 UNK         0.3013 
    105 H105       30.2143   30.7095   -2.4774 H         1 UNK         0.3121 
    106 H106       29.1372   33.2806   -1.9377 H         1 UNK         0.0774 
    107 H107       31.7247   32.4791   -3.3767 H         1 UNK         0.0815 
    108 H108       30.9610   34.0600   -3.4556 H         1 UNK         0.0815 
    109 H109       30.1350   32.6624   -4.1212 H         1 UNK         0.0815 
    110 H110       31.9148   31.6043   -0.5554 H         1 UNK         0.2987 
    111 H111       33.0188   33.9571    0.7923 H         1 UNK         0.0949 
    112 H112       33.6511   30.9632    0.9859 H         1 UNK         0.0806 
    113 H113       34.5652   32.1914    0.1197 H         1 UNK         0.0806 
    114 H114       34.5057   32.2181    1.8738 H         1 UNK         0.0806 
    115 H115       31.8551   30.8349    2.1718 H         1 UNK         0.3010 
    116 H116       29.7729   31.9648    3.7460 H         1 UNK         0.0829 
    117 H117       30.7849   31.3255    5.9780 H         1 UNK         0.0813 
    118 H118       32.3206   30.9893    5.1918 H         1 UNK         0.0813 
    119 H119       31.6924   32.6353    5.2420 H         1 UNK         0.0813 
    120 H120       28.5473   30.1955    4.6885 H         1 UNK         0.3038 
    121 H121       28.8129   27.6329    3.3209 H         1 UNK         0.0769 
    122 H122       26.9078   28.5475    5.5473 H         1 UNK         0.0811 
    123 H123       26.7836   27.0562    4.6221 H         1 UNK         0.0811 
    124 H124       26.5749   28.6013    3.8167 H         1 UNK         0.0811 
    125 H125       30.4542   26.3920    3.9334 H         1 UNK         0.3204 
    126 H126       31.9736   25.2006    5.0578 H         1 UNK         0.0748 
    127 H127       31.3826   24.1594    7.2145 H         1 UNK         0.0771 
    128 H128       30.0370   25.2665    7.4313 H         1 UNK         0.0771 
    129 H129       30.0080   24.0899    6.1215 H         1 UNK         0.0771 
    130 H130       33.1780   27.1863    4.6998 H         1 UNK         0.2980 
    131 H131       33.8305   29.1364    6.4863 H         1 UNK         0.0545 
    132 H132       36.0614   28.1218    9.0566 H         1 UNK         0.3459 
    133 H133       35.1988   29.4347    8.2994 H         1 UNK         0.3459 
    134 H134       35.7859   27.6873    4.6270 H         1 UNK         0.0616 
    135 H135       36.0265   29.2756    5.3012 H         1 UNK         0.0616 
    136 H136       36.0258   28.0095    2.3541 H         1 UNK         0.0634 
    137 H137       35.1154   29.0318    1.2885 H         1 UNK         0.0634 
@<TRIPOS>BOND
     1    1    2 1    
     2    1   72 1    
     3    1   73 1    
     4    1   74 1    
     5    2    3 2    
     6    2    4 am   BACKBONE|DICT|INTERRES
     7    4    5 1    
     8    4   75 1    
     9    5    6 1    
    10    5   35 1    
    11    5   76 1    
    12    6    7 1    
    13    6   77 1    
    14    6   78 1    
    15    7    8 1    
    16    8    9 1    
    17    8   79 1    
    18    8   80 1    
    19    9   10 ar   
    20    9   14 ar   
    21   10   11 ar   
    22   10   81 1    
    23   11   12 ar   
    24   11   71 1    
    25   12   13 ar   
    26   12   82 1    
    27   13   14 ar   
    28   13   15 1    
    29   14   83 1    
    30   15   16 1    
    31   15   84 1    
    32   15   85 1    
    33   16   17 1    
    34   17   18 1    
    35   17   86 1    
    36   17   87 1    
    37   18   19 1    
    38   18   37 1    
    39   18   88 1    
    40   19   20 am   BACKBONE|DICT|INTERRES
    41   19   89 1    
    42   20   21 2    
    43   20   22 1    
    44   22   23 1    
    45   22   24 1    
    46   22   90 1    
    47   23   91 1    
    48   23   92 1    
    49   23   93 1    
    50   24   25 am   BACKBONE|DICT|INTERRES
    51   24   94 1    
    52   25   26 2    
    53   25   27 1    
    54   27   28 1    
    55   27   29 1    
    56   27   95 1    
    57   28   96 1    
    58   28   97 1    
    59   28   98 1    
    60   29   30 am   BACKBONE|DICT|INTERRES
    61   29   99 1    
    62   30   31 2    
    63   30   32 1    
    64   32   33 1    
    65   32   34 1    
    66   32  100 1    
    67   33  101 1    
    68   33  102 1    
    69   33  103 1    
    70   34   35 am   BACKBONE|DICT|INTERRES
    71   34  104 1    
    72   35   36 2    
    73   37   38 2    
    74   37   39 am   BACKBONE|DICT|INTERRES
    75   39   40 1    
    76   39  105 1    
    77   40   41 1    
    78   40   42 1    
    79   40  106 1    
    80   41  107 1    
    81   41  108 1    
    82   41  109 1    
    83   42   43 2    
    84   42   44 am   BACKBONE|DICT|INTERRES
    85   44   45 1    
    86   44  110 1    
    87   45   46 1    
    88   45   47 1    
    89   45  111 1    
    90   46  112 1    
    91   46  113 1    
    92   46  114 1    
    93   47   48 2    
    94   47   49 am   BACKBONE|DICT|INTERRES
    95   49   50 1    
    96   49  115 1    
    97   50   51 1    
    98   50   52 1    
    99   50  116 1    
   100   51  117 1    
   101   51  118 1    
   102   51  119 1    
   103   52   53 2    
   104   52   54 am   BACKBONE|DICT|INTERRES
   105   54   55 1    
   106   54  120 1    
   107   55   56 1    
   108   55   57 1    
   109   55  121 1    
   110   56  122 1    
   111   56  123 1    
   112   56  124 1    
   113   57   58 2    
   114   57   59 am   BACKBONE|DICT|INTERRES
   115   59   60 1    
   116   59  125 1    
   117   60   61 1    
   118   60   62 1    
   119   60  126 1    
   120   61  127 1    
   121   61  128 1    
   122   61  129 1    
   123   62   63 2    
   124   62   64 am   BACKBONE|DICT|INTERRES
   125   64   65 1    
   126   64  130 1    
   127   65   66 1    
   128   65   69 1    
   129   65  131 1    
   130   66   67 am   BACKBONE|DICT|INTERRES
   131   66   68 2    
   132   67  132 1    
   133   67  133 1    
   134   69   70 1    
   135   69  134 1    
   136   69  135 1    
   137   70   71 1    
   138   71  136 1    
   139   71  137 1    
@<TRIPOS>SUBSTRUCTURE
     1 UNK         1 GROUP             0       ****    0 ROOT    
