@<TRIPOS>MOLECULE
3R136
137   139    1
SMALL
USER_CHARGES


@<TRIPOS>ATOM
      1 CA         25.6969   23.7519    4.7877 C.3       0 UNK        -0.1979 
      2 C          26.4641   24.8545    4.0646 C.2       0 UNK         0.4864 
      3 O          26.1441   26.0280    4.2451 O.2       0 UNK        -0.5359 
      4 N          27.4844   24.5394    3.2552 N.am      1 UNK        -0.4318 
      5 CA         27.9563   23.1917    2.9129 C.3       1 UNK         0.0824 
      6 C6         29.4506   23.1949    2.5106 C.3       12 UNK        -0.0944 
      7 S7         30.5144   23.8028    3.8624 S.3       12 UNK        -0.2672 
      8 C8         32.1322   23.9103    3.0370 C.3       12 UNK         0.0333 
      9 C9         32.1850   25.0390    2.0170 C.ar      12 UNK        -0.0807 
     10 C10        32.2892   26.3662    2.4424 C.ar      12 UNK        -0.0894 
     11 C11        32.3626   27.4069    1.5115 C.ar      12 UNK        -0.0804 
     12 C12        32.3367   27.1111    0.1449 C.ar      12 UNK        -0.0824 
     13 C13        32.2317   25.7870   -0.2937 C.ar      12 UNK        -0.0762 
     14 C14        32.1551   24.7561    0.6484 C.ar      12 UNK        -0.0782 
     15 C15        32.2258   25.4582   -1.7825 C.3       12 UNK         0.0230 
     16 S16        30.8494   26.2349   -2.6929 S.3       12 UNK        -0.2608 
     17 C17        29.3799   25.6078   -1.8115 C.3       12 UNK        -0.0989 
     18 CA         28.3745   26.7629   -1.5141 C.3       5 UNK         0.0716 
     19 N          27.1968   26.6800   -2.3812 N.am      5 UNK        -0.4135 
     20 C          26.4726   27.7205   -2.8135 C.2       4 UNK         0.5031 
     21 O          26.7107   28.8929   -2.5189 O.2       4 UNK        -0.5229 
     22 CA         25.2744   27.3878   -3.7160 C.3       4 UNK         0.0329 
     23 CB         25.7428   26.9677   -5.1197 C.3       4 UNK        -0.2001 
     24 N          24.4463   26.3299   -3.1325 N.am      4 UNK        -0.4303 
     25 C          23.4914   26.5425   -2.2158 C.2       3 UNK         0.5044 
     26 O          23.1479   27.6581   -1.8229 O.2       3 UNK        -0.5152 
     27 CA         22.8145   25.2915   -1.6257 C.3       3 UNK         0.0319 
     28 CB         21.7393   24.7492   -2.5818 C.3       3 UNK        -0.2001 
     29 N          23.7641   24.2231   -1.2912 N.am      3 UNK        -0.4354 
     30 C          24.7259   24.3343   -0.3642 C.2       2 UNK         0.4964 
     31 O          24.8998   25.3477    0.3165 O.2       2 UNK        -0.5047 
     32 CA         25.6448   23.1178   -0.1716 C.3       2 UNK         0.0288 
     33 CB         26.4067   22.7577   -1.4608 C.3       2 UNK        -0.2113 
     34 N          26.6029   23.4256    0.8846 N.am      2 UNK        -0.4145 
     35 C          27.0910   22.5767    1.7945 C.2       1 UNK         0.5006 
     36 O          26.8565   21.3674    1.8014 O.2       1 UNK        -0.5103 
     37 C          27.9284   26.8564   -0.0408 C.2       5 UNK         0.5055 
     38 O          28.0820   25.9030    0.7251 O.2       5 UNK        -0.5220 
     39 N          27.3437   28.0039    0.3234 N.am      6 UNK        -0.4450 
     40 CA         26.9647   28.3342    1.6955 C.3       6 UNK         0.0367 
     41 CB         26.0821   29.5921    1.6933 C.3       6 UNK        -0.1929 
     42 C          28.2186   28.5440    2.5603 C.2       6 UNK         0.5070 
     43 O          29.1369   29.2455    2.1297 O.2       6 UNK        -0.5237 
     44 N          28.2351   27.9331    3.7503 N.am      7 UNK        -0.4739 
     45 CA         29.3455   27.9963    4.7022 C.3       7 UNK         0.0276 
     46 CB         29.0890   27.0053    5.8486 C.3       7 UNK        -0.1927 
     47 C          29.5699   29.4146    5.2539 C.2       7 UNK         0.5013 
     48 O          28.6034   30.1428    5.4952 O.2       7 UNK        -0.5193 
     49 N          30.8409   29.7606    5.4743 N.am      8 UNK        -0.4253 
     50 CA         31.3008   31.0359    6.0098 C.3       8 UNK         0.0242 
     51 CB         31.3442   32.0926    4.8900 C.3       8 UNK        -0.2000 
     52 C          32.6954   30.8162    6.5995 C.2       8 UNK         0.4948 
     53 O          33.4132   29.9254    6.1360 O.2       8 UNK        -0.5275 
     54 N          33.0742   31.6527    7.5757 N.am      9 UNK        -0.4246 
     55 CA         34.3673   31.6004    8.2722 C.3       9 UNK         0.0261 
     56 CB         34.3842   32.6440    9.4008 C.3       9 UNK        -0.1959 
     57 C          35.5860   31.7855    7.3498 C.2       9 UNK         0.5033 
     58 O          36.6425   31.2134    7.6218 O.2       9 UNK        -0.5390 
     59 N          35.4049   32.5358    6.2532 N.am      10 UNK        -0.4215 
     60 CA         36.3922   32.7383    5.1890 C.3       10 UNK         0.0240 
     61 CB         35.8459   33.7690    4.1873 C.3       10 UNK        -0.1982 
     62 C          36.8009   31.4450    4.4568 C.2       10 UNK         0.4970 
     63 O          37.9068   31.3939    3.9170 O.2       10 UNK        -0.4916 
     64 N          35.9237   30.4322    4.4592 N.am      11 UNK        -0.4279 
     65 CA         36.1932   29.0931    3.9163 C.3       11 UNK         0.1003 
     66 C          36.9027   28.1442    4.9274 C.2       11 UNK         0.5709 
     67 N          37.1775   28.5524    6.1623 N.am      11 UNK        -0.7358 
     68 O          37.2315   27.0129    4.5780 O.2       11 UNK        -0.4999 
     69 C69        34.9121   28.4471    3.3261 C.3       12 UNK        -0.0954 
     70 S70        34.1873   29.4416    1.9785 S.3       12 UNK        -0.2268 
     71 C71        32.4672   28.8513    1.9794 C.3       12 UNK         0.0203 
     72 H72        26.3446   23.2295    5.4912 H         1 UNK         0.0888 
     73 H73        24.8663   24.1744    5.3528 H         1 UNK         0.0888 
     74 H74        25.2833   23.0309    4.0837 H         1 UNK         0.0888 
     75 H75        27.9480   25.2794    2.7403 H         1 UNK         0.3017 
     76 H76        27.8591   22.5460    3.7873 H         1 UNK         0.0873 
     77 H77        29.6062   23.8177    1.6280 H         1 UNK         0.0745 
     78 H78        29.7815   22.1889    2.2450 H         1 UNK         0.0745 
     79 H79        32.3650   22.9511    2.5718 H         1 UNK         0.0705 
     80 H80        32.9007   24.0754    3.7935 H         1 UNK         0.0705 
     81 H81        32.3182   26.5847    3.5006 H         1 UNK         0.1334 
     82 H82        32.3994   27.9122   -0.5791 H         1 UNK         0.1417 
     83 H83        32.0792   23.7292    0.3173 H         1 UNK         0.1562 
     84 H84        32.1818   24.3797   -1.9426 H         1 UNK         0.0748 
     85 H85        33.1675   25.7923   -2.2201 H         1 UNK         0.0748 
     86 H86        29.7065   25.0891   -0.9101 H         1 UNK         0.0940 
     87 H87        28.9301   24.8300   -2.4292 H         1 UNK         0.0940 
     88 H88        28.8745   27.7134   -1.7156 H         1 UNK         0.0703 
     89 H89        26.9071   25.7536   -2.6496 H         1 UNK         0.3081 
     90 H90        24.6751   28.2949   -3.8239 H         1 UNK         0.0719 
     91 H91        26.3613   27.7445   -5.5717 H         1 UNK         0.0809 
     92 H92        26.3337   26.0513   -5.1004 H         1 UNK         0.0809 
     93 H93        24.8950   26.8041   -5.7853 H         1 UNK         0.0809 
     94 H94        24.6389   25.3794   -3.4121 H         1 UNK         0.2990 
     95 H95        22.3198   25.5941   -0.7001 H         1 UNK         0.0690 
     96 H96        21.1858   23.9258   -2.1298 H         1 UNK         0.0788 
     97 H97        22.1694   24.3913   -3.5180 H         1 UNK         0.0788 
     98 H98        21.0140   25.5248   -2.8321 H         1 UNK         0.0788 
     99 H99        23.6716   23.3556   -1.8004 H         1 UNK         0.2993 
    100 H100       25.0204   22.2757    0.1348 H         1 UNK         0.0949 
    101 H101       27.0040   23.5945   -1.8193 H         1 UNK         0.0767 
    102 H102       27.0807   21.9165   -1.2970 H         1 UNK         0.0767 
    103 H103       25.7265   22.4687   -2.2625 H         1 UNK         0.0767 
    104 H104       26.8390   24.4131    0.9664 H         1 UNK         0.3013 
    105 H105       27.2260   28.7251   -0.3776 H         1 UNK         0.3121 
    106 H106       26.3788   27.5031    2.0921 H         1 UNK         0.0774 
    107 H107       25.7664   29.8448    2.7064 H         1 UNK         0.0815 
    108 H108       26.6122   30.4566    1.2914 H         1 UNK         0.0815 
    109 H109       25.1802   29.4424    1.0993 H         1 UNK         0.0815 
    110 H110       27.4277   27.3777    4.0270 H         1 UNK         0.2987 
    111 H111       30.2450   27.6822    4.1704 H         1 UNK         0.0949 
    112 H112       29.0130   25.9828    5.4793 H         1 UNK         0.0806 
    113 H113       29.9027   27.0244    6.5747 H         1 UNK         0.0806 
    114 H114       28.1669   27.2384    6.3826 H         1 UNK         0.0806 
    115 H115       31.5899   29.0958    5.3231 H         1 UNK         0.3010 
    116 H116       30.6254   31.3594    6.8050 H         1 UNK         0.0829 
    117 H117       30.3566   32.2537    4.4572 H         1 UNK         0.0813 
    118 H118       31.6905   33.0552    5.2681 H         1 UNK         0.0813 
    119 H119       32.0157   31.7951    4.0829 H         1 UNK         0.0813 
    120 H120       32.4240   32.3608    7.8871 H         1 UNK         0.3038 
    121 H121       34.4543   30.6093    8.7227 H         1 UNK         0.0769 
    122 H122       35.3268   32.6099    9.9493 H         1 UNK         0.0811 
    123 H123       33.5869   32.4630   10.1220 H         1 UNK         0.0811 
    124 H124       34.2677   33.6582    9.0168 H         1 UNK         0.0811 
    125 H125       34.5017   32.9665    6.1215 H         1 UNK         0.3204 
    126 H126       37.2932   33.1489    5.6495 H         1 UNK         0.0748 
    127 H127       36.5705   33.9662    3.3958 H         1 UNK         0.0771 
    128 H128       34.9290   33.4207    3.7095 H         1 UNK         0.0771 
    129 H129       35.6330   34.7218    4.6724 H         1 UNK         0.0771 
    130 H130       35.0485   30.5258    4.9609 H         1 UNK         0.2980 
    131 H131       36.8971   29.1990    3.0888 H         1 UNK         0.0545 
    132 H132       37.6439   27.9200    6.7926 H         1 UNK         0.3459 
    133 H133       36.9336   29.4837    6.4766 H         1 UNK         0.3459 
    134 H134       35.1295   27.4574    2.9204 H         1 UNK         0.0616 
    135 H135       34.1668   28.3028    4.1096 H         1 UNK         0.0616 
    136 H136       32.0428   28.9685    2.9764 H         1 UNK         0.0634 
    137 H137       31.8753   29.4910    1.3231 H         1 UNK         0.0634 
@<TRIPOS>BOND
     1    1    2 1    
     2    1   72 1    
     3    1   73 1    
     4    1   74 1    
     5    2    3 2    
     6    2    4 am   BACKBONE|DICT|INTERRES
     7    4    5 1    
     8    4   75 1    
     9    5    6 1    
    10    5   35 1    
    11    5   76 1    
    12    6    7 1    
    13    6   77 1    
    14    6   78 1    
    15    7    8 1    
    16    8    9 1    
    17    8   79 1    
    18    8   80 1    
    19    9   10 ar   
    20    9   14 ar   
    21   10   11 ar   
    22   10   81 1    
    23   11   12 ar   
    24   11   71 1    
    25   12   13 ar   
    26   12   82 1    
    27   13   14 ar   
    28   13   15 1    
    29   14   83 1    
    30   15   16 1    
    31   15   84 1    
    32   15   85 1    
    33   16   17 1    
    34   17   18 1    
    35   17   86 1    
    36   17   87 1    
    37   18   19 1    
    38   18   37 1    
    39   18   88 1    
    40   19   20 am   BACKBONE|DICT|INTERRES
    41   19   89 1    
    42   20   21 2    
    43   20   22 1    
    44   22   23 1    
    45   22   24 1    
    46   22   90 1    
    47   23   91 1    
    48   23   92 1    
    49   23   93 1    
    50   24   25 am   BACKBONE|DICT|INTERRES
    51   24   94 1    
    52   25   26 2    
    53   25   27 1    
    54   27   28 1    
    55   27   29 1    
    56   27   95 1    
    57   28   96 1    
    58   28   97 1    
    59   28   98 1    
    60   29   30 am   BACKBONE|DICT|INTERRES
    61   29   99 1    
    62   30   31 2    
    63   30   32 1    
    64   32   33 1    
    65   32   34 1    
    66   32  100 1    
    67   33  101 1    
    68   33  102 1    
    69   33  103 1    
    70   34   35 am   BACKBONE|DICT|INTERRES
    71   34  104 1    
    72   35   36 2    
    73   37   38 2    
    74   37   39 am   BACKBONE|DICT|INTERRES
    75   39   40 1    
    76   39  105 1    
    77   40   41 1    
    78   40   42 1    
    79   40  106 1    
    80   41  107 1    
    81   41  108 1    
    82   41  109 1    
    83   42   43 2    
    84   42   44 am   BACKBONE|DICT|INTERRES
    85   44   45 1    
    86   44  110 1    
    87   45   46 1    
    88   45   47 1    
    89   45  111 1    
    90   46  112 1    
    91   46  113 1    
    92   46  114 1    
    93   47   48 2    
    94   47   49 am   BACKBONE|DICT|INTERRES
    95   49   50 1    
    96   49  115 1    
    97   50   51 1    
    98   50   52 1    
    99   50  116 1    
   100   51  117 1    
   101   51  118 1    
   102   51  119 1    
   103   52   53 2    
   104   52   54 am   BACKBONE|DICT|INTERRES
   105   54   55 1    
   106   54  120 1    
   107   55   56 1    
   108   55   57 1    
   109   55  121 1    
   110   56  122 1    
   111   56  123 1    
   112   56  124 1    
   113   57   58 2    
   114   57   59 am   BACKBONE|DICT|INTERRES
   115   59   60 1    
   116   59  125 1    
   117   60   61 1    
   118   60   62 1    
   119   60  126 1    
   120   61  127 1    
   121   61  128 1    
   122   61  129 1    
   123   62   63 2    
   124   62   64 am   BACKBONE|DICT|INTERRES
   125   64   65 1    
   126   64  130 1    
   127   65   66 1    
   128   65   69 1    
   129   65  131 1    
   130   66   67 am   BACKBONE|DICT|INTERRES
   131   66   68 2    
   132   67  132 1    
   133   67  133 1    
   134   69   70 1    
   135   69  134 1    
   136   69  135 1    
   137   70   71 1    
   138   71  136 1    
   139   71  137 1    
@<TRIPOS>SUBSTRUCTURE
     1 UNK         1 GROUP             0       ****    0 ROOT    
