@<TRIPOS>MOLECULE
3R136
137   139    1
SMALL
USER_CHARGES


@<TRIPOS>ATOM
      1 CA         29.6888   26.5888    3.2148 C.3       0 UNK        -0.1979 
      2 C          29.2252   25.1719    2.9166 C.2       0 UNK         0.4864 
      3 O          28.5672   24.5473    3.7502 O.2       0 UNK        -0.5359 
      4 N          29.5889   24.6530    1.7376 N.am      1 UNK        -0.4318 
      5 CA         29.1979   23.3306    1.2469 C.3       1 UNK         0.0824 
      6 C6         30.0229   22.9069    0.0073 C.3       12 UNK        -0.0944 
      7 S7         31.7585   22.5443    0.4299 S.3       12 UNK        -0.2672 
      8 C8         32.6667   23.7725   -0.5597 C.3       12 UNK         0.0333 
      9 C9         32.6633   25.1507    0.0857 C.ar      12 UNK        -0.0807 
     10 C10        33.3876   25.3690    1.2613 C.ar      12 UNK        -0.0894 
     11 C11        33.4385   26.6390    1.8419 C.ar      12 UNK        -0.0804 
     12 C12        32.7502   27.6961    1.2407 C.ar      12 UNK        -0.0824 
     13 C13        32.0390   27.4962    0.0530 C.ar      12 UNK        -0.0762 
     14 C14        31.9906   26.2189   -0.5158 C.ar      12 UNK        -0.0782 
     15 C15        31.3727   28.6741   -0.6435 C.3       12 UNK         0.0230 
     16 S16        29.7315   29.0371    0.0444 S.3       12 UNK        -0.2608 
     17 C17        28.7800   27.6079   -0.5657 C.3       12 UNK        -0.0989 
     18 CA         27.2496   27.8227   -0.5255 C.3       5 UNK         0.0716 
     19 N          26.5586   26.6953   -1.1359 N.am      5 UNK        -0.4135 
     20 C          26.0964   26.6533   -2.3887 C.2       4 UNK         0.5031 
     21 O          26.2454   27.5606   -3.2084 O.2       4 UNK        -0.5229 
     22 CA         25.3303   25.3869   -2.8038 C.3       4 UNK         0.0329 
     23 CB         26.2832   24.3682   -3.4507 C.3       4 UNK        -0.2001 
     24 N          24.6262   24.7503   -1.6880 N.am      4 UNK        -0.4303 
     25 C          23.5133   25.2277   -1.1084 C.2       3 UNK         0.5044 
     26 O          22.9644   26.2743   -1.4550 O.2       3 UNK        -0.5152 
     27 CA         22.8849   24.3978    0.0287 C.3       3 UNK         0.0319 
     28 CB         21.5069   23.8601   -0.3943 C.3       3 UNK        -0.2001 
     29 N          23.7306   23.2664    0.4158 N.am      3 UNK        -0.4354 
     30 C          24.6113   23.2740    1.4240 C.2       2 UNK         0.4964 
     31 O          24.6994   24.1824    2.2503 O.2       2 UNK        -0.5047 
     32 CA         25.5558   22.0588    1.5335 C.3       2 UNK         0.0288 
     33 CB         25.4354   21.0549    0.3618 C.3       2 UNK        -0.2113 
     34 N          26.9628   22.4428    1.7045 N.am      2 UNK        -0.4145 
     35 C          27.6882   23.2698    0.9339 C.2       1 UNK         0.5006 
     36 O          27.2384   23.9178   -0.0164 O.2       1 UNK        -0.5103 
     37 C          26.7106   27.9555    0.9065 C.2       5 UNK         0.5055 
     38 O          26.5516   26.9404    1.5857 O.2       5 UNK        -0.5220 
     39 N          26.4511   29.1945    1.3421 N.am      6 UNK        -0.4450 
     40 CA         26.0365   29.5050    2.7113 C.3       6 UNK         0.0367 
     41 CB         25.2440   30.8233    2.7296 C.3       6 UNK        -0.1929 
     42 C          27.2446   29.5768    3.6580 C.2       6 UNK         0.5070 
     43 O          27.2254   28.9480    4.7157 O.2       6 UNK        -0.5237 
     44 N          28.2695   30.3365    3.2537 N.am      7 UNK        -0.4739 
     45 CA         29.5123   30.5930    3.9774 C.3       7 UNK         0.0276 
     46 CB         29.2377   31.3701    5.2825 C.3       7 UNK        -0.1927 
     47 C          30.4432   31.4057    3.0676 C.2       7 UNK         0.5013 
     48 O          29.9715   32.0437    2.1222 O.2       7 UNK        -0.5193 
     49 N          31.7366   31.3968    3.3994 N.am      8 UNK        -0.4253 
     50 CA         32.8030   32.1888    2.7899 C.3       8 UNK         0.0242 
     51 CB         33.1511   31.6805    1.3725 C.3       8 UNK        -0.2000 
     52 C          33.9913   32.1602    3.7641 C.2       8 UNK         0.4948 
     53 O          33.7711   32.0343    4.9722 O.2       8 UNK        -0.5275 
     54 N          35.2251   32.2433    3.2470 N.am      9 UNK        -0.4246 
     55 CA         36.4611   32.0774    4.0191 C.3       9 UNK         0.0261 
     56 CB         37.6724   32.2604    3.0908 C.3       9 UNK        -0.1959 
     57 C          36.5100   30.7021    4.7090 C.2       9 UNK         0.5033 
     58 O          36.1978   29.6957    4.0695 O.2       9 UNK        -0.5390 
     59 N          36.8546   30.6945    6.0029 N.am      10 UNK        -0.4215 
     60 CA         36.8653   29.5595    6.9391 C.3       10 UNK         0.0240 
     61 CB         37.8040   28.4294    6.4697 C.3       10 UNK        -0.1982 
     62 C          35.4691   29.0122    7.2988 C.2       10 UNK         0.4970 
     63 O          35.2199   28.7669    8.4799 O.2       10 UNK        -0.4916 
     64 N          34.5913   28.8293    6.3045 N.am      11 UNK        -0.4279 
     65 CA         33.2144   28.3390    6.4872 C.3       11 UNK         0.1003 
     66 C          32.2537   29.3475    7.1779 C.2       11 UNK         0.5709 
     67 N          32.4842   30.6516    7.0993 N.am      11 UNK        -0.7358 
     68 O          31.2840   28.9339    7.8080 O.2       11 UNK        -0.4999 
     69 C69        32.6026   27.8001    5.1683 C.3       12 UNK        -0.0954 
     70 S70        33.4577   26.2950    4.5953 S.3       12 UNK        -0.2268 
     71 C71        34.2867   26.8700    3.0836 C.3       12 UNK         0.0203 
     72 H72        29.1945   27.3004    2.5558 H         1 UNK         0.0888 
     73 H73        29.4523   26.8641    4.2423 H         1 UNK         0.0888 
     74 H74        30.7644   26.6776    3.0740 H         1 UNK         0.0888 
     75 H75        30.1755   25.1915    1.1172 H         1 UNK         0.3017 
     76 H76        29.4065   22.6131    2.0438 H         1 UNK         0.0873 
     77 H77        29.6121   21.9969   -0.4352 H         1 UNK         0.0745 
     78 H78        29.9702   23.6694   -0.7723 H         1 UNK         0.0745 
     79 H79        32.2589   23.8057   -1.5712 H         1 UNK         0.0705 
     80 H80        33.6997   23.4373   -0.6631 H         1 UNK         0.0705 
     81 H81        33.9249   24.5492    1.7189 H         1 UNK         0.1334 
     82 H82        32.7855   28.6794    1.6854 H         1 UNK         0.1417 
     83 H83        31.4523   26.0635   -1.4412 H         1 UNK         0.1562 
     84 H84        31.2892   28.4924   -1.7162 H         1 UNK         0.0748 
     85 H85        32.0002   29.5597   -0.5407 H         1 UNK         0.0748 
     86 H86        29.0588   26.7225    0.0049 H         1 UNK         0.0940 
     87 H87        29.0857   27.4112   -1.5946 H         1 UNK         0.0940 
     88 H88        27.0042   28.7373   -1.0702 H         1 UNK         0.0703 
     89 H89        26.4115   25.9001   -0.5218 H         1 UNK         0.3081 
     90 H90        24.5890   25.6804   -3.5503 H         1 UNK         0.0719 
     91 H91        26.7992   24.8065   -4.3062 H         1 UNK         0.0809 
     92 H92        27.0469   24.0264   -2.7508 H         1 UNK         0.0809 
     93 H93        25.7434   23.4933   -3.8130 H         1 UNK         0.0809 
     94 H94        25.0549   23.9223   -1.2998 H         1 UNK         0.2990 
     95 H95        22.7424   25.0674    0.8795 H         1 UNK         0.0690 
     96 H96        21.0354   23.3002    0.4136 H         1 UNK         0.0788 
     97 H97        21.5770   23.2033   -1.2624 H         1 UNK         0.0788 
     98 H98        20.8318   24.6760   -0.6566 H         1 UNK         0.0788 
     99 H99        23.7047   22.4569   -0.1884 H         1 UNK         0.2993 
    100 H100       25.2649   21.5386    2.4475 H         1 UNK         0.0949 
    101 H101       26.1024   20.2051    0.5092 H         1 UNK         0.0767 
    102 H102       24.4266   20.6472    0.2830 H         1 UNK         0.0767 
    103 H103       25.6948   21.5081   -0.5961 H         1 UNK         0.0767 
    104 H104       27.4250   22.0227    2.4989 H         1 UNK         0.3013 
    105 H105       26.6193   29.9757    0.7243 H         1 UNK         0.3121 
    106 H106       25.3746   28.7141    3.0722 H         1 UNK         0.0774 
    107 H107       24.3456   30.7527    2.1163 H         1 UNK         0.0815 
    108 H108       24.9241   31.0693    3.7431 H         1 UNK         0.0815 
    109 H109       25.8355   31.6629    2.3626 H         1 UNK         0.0815 
    110 H110       28.2264   30.8077    2.3579 H         1 UNK         0.2987 
    111 H111       29.9882   29.6370    4.2051 H         1 UNK         0.0949 
    112 H112       28.6784   30.7702    6.0000 H         1 UNK         0.0806 
    113 H113       30.1657   31.6625    5.7742 H         1 UNK         0.0806 
    114 H114       28.6707   32.2823    5.0934 H         1 UNK         0.0806 
    115 H115       32.0240   30.9360    4.2532 H         1 UNK         0.3010 
    116 H116       32.4623   33.2239    2.7228 H         1 UNK         0.0829 
    117 H117       33.6556   30.7153    1.3979 H         1 UNK         0.0813 
    118 H118       33.8086   32.3800    0.8555 H         1 UNK         0.0813 
    119 H119       32.2610   31.5784    0.7523 H         1 UNK         0.0813 
    120 H120       35.3240   32.3119    2.2451 H         1 UNK         0.3038 
    121 H121       36.4831   32.8608    4.7796 H         1 UNK         0.0769 
    122 H122       37.6727   33.2463    2.6255 H         1 UNK         0.0811 
    123 H123       37.6878   31.5126    2.2965 H         1 UNK         0.0811 
    124 H124       38.6069   32.1647    3.6454 H         1 UNK         0.0811 
    125 H125       37.0605   31.5881    6.4291 H         1 UNK         0.3204 
    126 H126       37.2848   29.9582    7.8644 H         1 UNK         0.0748 
    127 H127       38.8061   28.8056    6.2644 H         1 UNK         0.0771 
    128 H128       37.8972   27.6603    7.2376 H         1 UNK         0.0771 
    129 H129       37.4383   27.9382    5.5675 H         1 UNK         0.0771 
    130 H130       34.8930   29.0451    5.3597 H         1 UNK         0.2980 
    131 H131       33.2756   27.4928    7.1748 H         1 UNK         0.0545 
    132 H132       31.8658   31.2835    7.5806 H         1 UNK         0.3459 
    133 H133       33.2279   31.0270    6.5193 H         1 UNK         0.3459 
    134 H134       32.6106   28.5651    4.3905 H         1 UNK         0.0616 
    135 H135       31.5569   27.5283    5.3191 H         1 UNK         0.0616 
    136 H136       35.2298   26.3316    2.9799 H         1 UNK         0.0634 
    137 H137       34.5520   27.9224    3.1776 H         1 UNK         0.0634 
@<TRIPOS>BOND
     1    1    2 1    
     2    1   72 1    
     3    1   73 1    
     4    1   74 1    
     5    2    3 2    
     6    2    4 am   BACKBONE|DICT|INTERRES
     7    4    5 1    
     8    4   75 1    
     9    5    6 1    
    10    5   35 1    
    11    5   76 1    
    12    6    7 1    
    13    6   77 1    
    14    6   78 1    
    15    7    8 1    
    16    8    9 1    
    17    8   79 1    
    18    8   80 1    
    19    9   10 ar   
    20    9   14 ar   
    21   10   11 ar   
    22   10   81 1    
    23   11   12 ar   
    24   11   71 1    
    25   12   13 ar   
    26   12   82 1    
    27   13   14 ar   
    28   13   15 1    
    29   14   83 1    
    30   15   16 1    
    31   15   84 1    
    32   15   85 1    
    33   16   17 1    
    34   17   18 1    
    35   17   86 1    
    36   17   87 1    
    37   18   19 1    
    38   18   37 1    
    39   18   88 1    
    40   19   20 am   BACKBONE|DICT|INTERRES
    41   19   89 1    
    42   20   21 2    
    43   20   22 1    
    44   22   23 1    
    45   22   24 1    
    46   22   90 1    
    47   23   91 1    
    48   23   92 1    
    49   23   93 1    
    50   24   25 am   BACKBONE|DICT|INTERRES
    51   24   94 1    
    52   25   26 2    
    53   25   27 1    
    54   27   28 1    
    55   27   29 1    
    56   27   95 1    
    57   28   96 1    
    58   28   97 1    
    59   28   98 1    
    60   29   30 am   BACKBONE|DICT|INTERRES
    61   29   99 1    
    62   30   31 2    
    63   30   32 1    
    64   32   33 1    
    65   32   34 1    
    66   32  100 1    
    67   33  101 1    
    68   33  102 1    
    69   33  103 1    
    70   34   35 am   BACKBONE|DICT|INTERRES
    71   34  104 1    
    72   35   36 2    
    73   37   38 2    
    74   37   39 am   BACKBONE|DICT|INTERRES
    75   39   40 1    
    76   39  105 1    
    77   40   41 1    
    78   40   42 1    
    79   40  106 1    
    80   41  107 1    
    81   41  108 1    
    82   41  109 1    
    83   42   43 2    
    84   42   44 am   BACKBONE|DICT|INTERRES
    85   44   45 1    
    86   44  110 1    
    87   45   46 1    
    88   45   47 1    
    89   45  111 1    
    90   46  112 1    
    91   46  113 1    
    92   46  114 1    
    93   47   48 2    
    94   47   49 am   BACKBONE|DICT|INTERRES
    95   49   50 1    
    96   49  115 1    
    97   50   51 1    
    98   50   52 1    
    99   50  116 1    
   100   51  117 1    
   101   51  118 1    
   102   51  119 1    
   103   52   53 2    
   104   52   54 am   BACKBONE|DICT|INTERRES
   105   54   55 1    
   106   54  120 1    
   107   55   56 1    
   108   55   57 1    
   109   55  121 1    
   110   56  122 1    
   111   56  123 1    
   112   56  124 1    
   113   57   58 2    
   114   57   59 am   BACKBONE|DICT|INTERRES
   115   59   60 1    
   116   59  125 1    
   117   60   61 1    
   118   60   62 1    
   119   60  126 1    
   120   61  127 1    
   121   61  128 1    
   122   61  129 1    
   123   62   63 2    
   124   62   64 am   BACKBONE|DICT|INTERRES
   125   64   65 1    
   126   64  130 1    
   127   65   66 1    
   128   65   69 1    
   129   65  131 1    
   130   66   67 am   BACKBONE|DICT|INTERRES
   131   66   68 2    
   132   67  132 1    
   133   67  133 1    
   134   69   70 1    
   135   69  134 1    
   136   69  135 1    
   137   70   71 1    
   138   71  136 1    
   139   71  137 1    
@<TRIPOS>SUBSTRUCTURE
     1 UNK         1 GROUP             0       ****    0 ROOT    
