@<TRIPOS>MOLECULE
3R136
137   139    1
SMALL
USER_CHARGES


@<TRIPOS>ATOM
      1 CA         29.9377   24.4405    3.7544 C.3       0 UNK        -0.1979 
      2 C          29.2537   23.1751    3.2607 C.2       0 UNK         0.4864 
      3 O          28.2408   22.7677    3.8304 O.2       0 UNK        -0.5359 
      4 N          29.8046   22.5408    2.2170 N.am      1 UNK        -0.4318 
      5 CA         29.3294   21.2570    1.6810 C.3       1 UNK         0.0824 
      6 C6         30.4208   20.5208    0.8641 C.3       12 UNK        -0.0944 
      7 S7         31.9276   20.1850    1.8393 S.3       12 UNK        -0.2672 
      8 C8         33.2073   21.0582    0.8830 C.3       12 UNK         0.0333 
      9 C9         33.1231   22.5667    1.0623 C.ar      12 UNK        -0.0807 
     10 C10        33.7423   23.1787    2.1568 C.ar      12 UNK        -0.0894 
     11 C11        33.6905   24.5666    2.3141 C.ar      12 UNK        -0.0804 
     12 C12        32.9985   25.3414    1.3794 C.ar      12 UNK        -0.0824 
     13 C13        32.3718   24.7404    0.2854 C.ar      12 UNK        -0.0762 
     14 C14        32.4482   23.3542    0.1246 C.ar      12 UNK        -0.0782 
     15 C15        31.6253   25.5829   -0.7363 C.3       12 UNK         0.0230 
     16 S16        29.8265   25.3874   -0.5699 S.3       12 UNK        -0.2608 
     17 C17        29.4443   26.4359    0.8775 C.3       12 UNK        -0.0989 
     18 CA         28.7361   27.7608    0.4916 C.3       5 UNK         0.0716 
     19 N          27.5634   27.5288   -0.3517 N.am      5 UNK        -0.4135 
     20 C          27.0663   28.3989   -1.2414 C.2       4 UNK         0.5031 
     21 O          27.5549   29.5122   -1.4439 O.2       4 UNK        -0.5229 
     22 CA         25.8312   27.9691   -2.0574 C.3       4 UNK         0.0329 
     23 CB         26.2442   27.5978   -3.4912 C.3       4 UNK        -0.2001 
     24 N          25.1001   26.8444   -1.4701 N.am      4 UNK        -0.4303 
     25 C          24.3425   26.9111   -0.3662 C.2       3 UNK         0.5044 
     26 O          24.1036   27.9573    0.2373 O.2       3 UNK        -0.5152 
     27 CA         23.7727   25.5825    0.1701 C.3       3 UNK         0.0319 
     28 CB         22.3174   25.3990   -0.2900 C.3       3 UNK        -0.2001 
     29 N          24.5509   24.3917   -0.2015 N.am      3 UNK        -0.4354 
     30 C          25.8271   24.1706    0.1435 C.2       2 UNK         0.4964 
     31 O          26.5086   24.9714    0.7851 O.2       2 UNK        -0.5047 
     32 CA         26.4567   22.8680   -0.3598 C.3       2 UNK         0.0288 
     33 CB         26.8304   22.9817   -1.8487 C.3       2 UNK        -0.2113 
     34 N          27.6623   22.5811    0.4156 N.am      2 UNK        -0.4145 
     35 C          28.0281   21.3705    0.8552 C.2       1 UNK         0.5006 
     36 O          27.3838   20.3451    0.6231 O.2       1 UNK        -0.5103 
     37 C          28.2949   28.5777    1.7226 C.2       5 UNK         0.5055 
     38 O          28.0471   28.0088    2.7880 O.2       5 UNK        -0.5220 
     39 N          28.1280   29.8922    1.5229 N.am      6 UNK        -0.4450 
     40 CA         27.6904   30.8579    2.5336 C.3       6 UNK         0.0367 
     41 CB         27.4757   32.2212    1.8558 C.3       6 UNK        -0.1929 
     42 C          28.6893   30.9944    3.6947 C.2       6 UNK         0.5070 
     43 O          29.8906   30.8079    3.4979 O.2       6 UNK        -0.5237 
     44 N          28.1825   31.3775    4.8740 N.am      7 UNK        -0.4739 
     45 CA         28.9356   31.5344    6.1261 C.3       7 UNK         0.0276 
     46 CB         27.9461   31.4909    7.3062 C.3       7 UNK        -0.1927 
     47 C          29.8505   32.7809    6.1659 C.2       7 UNK         0.5013 
     48 O          29.8614   33.5098    7.1601 O.2       7 UNK        -0.5193 
     49 N          30.6021   33.0048    5.0867 N.am      8 UNK        -0.4253 
     50 CA         31.6046   34.0462    4.9151 C.3       8 UNK         0.0242 
     51 CB         30.9415   35.3747    4.5084 C.3       8 UNK        -0.2000 
     52 C          32.5684   33.5438    3.8388 C.2       8 UNK         0.4948 
     53 O          32.1193   33.2245    2.7353 O.2       8 UNK        -0.5275 
     54 N          33.8594   33.4435    4.1829 N.am      9 UNK        -0.4246 
     55 CA         34.9769   32.9091    3.3872 C.3       9 UNK         0.0261 
     56 CB         35.2090   33.7259    2.1002 C.3       9 UNK        -0.1959 
     57 C          34.8729   31.4016    3.0838 C.2       9 UNK         0.5033 
     58 O          35.8100   30.6609    3.3855 O.2       9 UNK        -0.5390 
     59 N          33.7377   30.9574    2.5321 N.am      10 UNK        -0.4215 
     60 CA         33.4153   29.5664    2.2007 C.3       10 UNK         0.0240 
     61 CB         32.3378   29.5614    1.0983 C.3       10 UNK        -0.1982 
     62 C          33.0047   28.7505    3.4454 C.2       10 UNK         0.4970 
     63 O          31.9365   28.1389    3.4476 O.2       10 UNK        -0.4916 
     64 N          33.8785   28.7577    4.4627 N.am      11 UNK        -0.4279 
     65 CA         33.7315   28.1506    5.7961 C.3       11 UNK         0.1003 
     66 C          32.3849   28.4823    6.5076 C.2       11 UNK         0.5709 
     67 N          31.7106   27.5168    7.1182 N.am      11 UNK        -0.7358 
     68 O          31.9895   29.6443    6.5736 O.2       11 UNK        -0.4999 
     69 C69        34.2244   26.6721    5.8759 C.3       12 UNK        -0.0954 
     70 S70        33.2777   25.4626    4.8911 S.3       12 UNK        -0.2268 
     71 C71        34.3975   25.2384    3.4788 C.3       12 UNK         0.0203 
     72 H72        30.3609   24.2734    4.7443 H         1 UNK         0.0888 
     73 H73        30.7445   24.7523    3.0924 H         1 UNK         0.0888 
     74 H74        29.2220   25.2591    3.8276 H         1 UNK         0.0888 
     75 H75        30.6535   22.9018    1.8020 H         1 UNK         0.3017 
     76 H76        29.0848   20.6213    2.5351 H         1 UNK         0.0873 
     77 H77        30.0470   19.5549    0.5183 H         1 UNK         0.0745 
     78 H78        30.6697   21.0801   -0.0381 H         1 UNK         0.0745 
     79 H79        33.1289   20.7874   -0.1711 H         1 UNK         0.0705 
     80 H80        34.1872   20.7078    1.2110 H         1 UNK         0.0705 
     81 H81        34.2716   22.5749    2.8815 H         1 UNK         0.1334 
     82 H82        32.9504   26.4131    1.5068 H         1 UNK         0.1417 
     83 H83        31.9776   22.8932   -0.7332 H         1 UNK         0.1562 
     84 H84        31.9196   25.2723   -1.7399 H         1 UNK         0.0748 
     85 H85        31.8916   26.6373   -0.6553 H         1 UNK         0.0748 
     86 H86        30.3550   26.6456    1.4411 H         1 UNK         0.0940 
     87 H87        28.8111   25.8478    1.5411 H         1 UNK         0.0940 
     88 H88        29.4596   28.3599   -0.0662 H         1 UNK         0.0703 
     89 H89        27.0866   26.6485   -0.1897 H         1 UNK         0.3081 
     90 H90        25.1579   28.8276   -2.1058 H         1 UNK         0.0719 
     91 H91        26.7629   28.4268   -3.9750 H         1 UNK         0.0809 
     92 H92        25.3763   27.3590   -4.1062 H         1 UNK         0.0809 
     93 H93        26.9168   26.7390   -3.5082 H         1 UNK         0.0809 
     94 H94        25.2271   25.9421   -1.9043 H         1 UNK         0.2990 
     95 H95        23.7797   25.6492    1.2601 H         1 UNK         0.0690 
     96 H96        21.8651   24.5167    0.1632 H         1 UNK         0.0788 
     97 H97        22.2461   25.2960   -1.3736 H         1 UNK         0.0788 
     98 H98        21.7061   26.2562   -0.0035 H         1 UNK         0.0788 
     99 H99        24.0660   23.6906   -0.7441 H         1 UNK         0.2993 
    100 H100       25.7238   22.0691   -0.2262 H         1 UNK         0.0949 
    101 H101       25.9514   23.1719   -2.4657 H         1 UNK         0.0767 
    102 H102       27.5380   23.7930   -2.0258 H         1 UNK         0.0767 
    103 H103       27.2847   22.0597   -2.2121 H         1 UNK         0.0767 
    104 H104       28.1941   23.3943    0.6984 H         1 UNK         0.3013 
    105 H105       28.2993   30.2528    0.5931 H         1 UNK         0.3121 
    106 H106       26.7370   30.5075    2.9349 H         1 UNK         0.0774 
    107 H107       27.1093   32.9614    2.5683 H         1 UNK         0.0815 
    108 H108       28.4036   32.6097    1.4330 H         1 UNK         0.0815 
    109 H109       26.7411   32.1558    1.0528 H         1 UNK         0.0815 
    110 H110       27.1910   31.5628    4.9307 H         1 UNK         0.2987 
    111 H111       29.5949   30.6697    6.2229 H         1 UNK         0.0949 
    112 H112       27.3556   30.5745    7.2970 H         1 UNK         0.0806 
    113 H113       28.4729   31.5205    8.2611 H         1 UNK         0.0806 
    114 H114       27.2578   32.3366    7.2862 H         1 UNK         0.0806 
    115 H115       30.5420   32.3277    4.3256 H         1 UNK         0.3010 
    116 H116       32.1436   34.1842    5.8549 H         1 UNK         0.0829 
    117 H117       30.2627   35.7334    5.2822 H         1 UNK         0.0813 
    118 H118       31.6908   36.1508    4.3480 H         1 UNK         0.0813 
    119 H119       30.3711   35.2732    3.5841 H         1 UNK         0.0813 
    120 H120       34.1090   33.7095    5.1261 H         1 UNK         0.3038 
    121 H121       35.8636   33.0369    4.0105 H         1 UNK         0.0769 
    122 H122       34.3736   33.6473    1.4041 H         1 UNK         0.0811 
    123 H123       36.0991   33.3767    1.5751 H         1 UNK         0.0811 
    124 H124       35.3591   34.7821    2.3239 H         1 UNK         0.0811 
    125 H125       32.9984   31.6460    2.3955 H         1 UNK         0.3204 
    126 H126       34.3089   29.0910    1.7910 H         1 UNK         0.0748 
    127 H127       32.0828   28.5458    0.7982 H         1 UNK         0.0771 
    128 H128       31.4182   30.0414    1.4344 H         1 UNK         0.0771 
    129 H129       32.6811   30.0849    0.2060 H         1 UNK         0.0771 
    130 H130       34.7167   29.3141    4.3288 H         1 UNK         0.2980 
    131 H131       34.4509   28.7083    6.3968 H         1 UNK         0.0545 
    132 H132       32.0219   26.5605    7.0501 H         1 UNK         0.3459 
    133 H133       30.8556   27.7400    7.6013 H         1 UNK         0.3459 
    134 H134       34.2227   26.3336    6.9132 H         1 UNK         0.0616 
    135 H135       35.2712   26.6278    5.5720 H         1 UNK         0.0616 
    136 H136       34.7846   26.2073    3.1602 H         1 UNK         0.0634 
    137 H137       35.2606   24.6499    3.7937 H         1 UNK         0.0634 
@<TRIPOS>BOND
     1    1    2 1    
     2    1   72 1    
     3    1   73 1    
     4    1   74 1    
     5    2    3 2    
     6    2    4 am   BACKBONE|DICT|INTERRES
     7    4    5 1    
     8    4   75 1    
     9    5    6 1    
    10    5   35 1    
    11    5   76 1    
    12    6    7 1    
    13    6   77 1    
    14    6   78 1    
    15    7    8 1    
    16    8    9 1    
    17    8   79 1    
    18    8   80 1    
    19    9   10 ar   
    20    9   14 ar   
    21   10   11 ar   
    22   10   81 1    
    23   11   12 ar   
    24   11   71 1    
    25   12   13 ar   
    26   12   82 1    
    27   13   14 ar   
    28   13   15 1    
    29   14   83 1    
    30   15   16 1    
    31   15   84 1    
    32   15   85 1    
    33   16   17 1    
    34   17   18 1    
    35   17   86 1    
    36   17   87 1    
    37   18   19 1    
    38   18   37 1    
    39   18   88 1    
    40   19   20 am   BACKBONE|DICT|INTERRES
    41   19   89 1    
    42   20   21 2    
    43   20   22 1    
    44   22   23 1    
    45   22   24 1    
    46   22   90 1    
    47   23   91 1    
    48   23   92 1    
    49   23   93 1    
    50   24   25 am   BACKBONE|DICT|INTERRES
    51   24   94 1    
    52   25   26 2    
    53   25   27 1    
    54   27   28 1    
    55   27   29 1    
    56   27   95 1    
    57   28   96 1    
    58   28   97 1    
    59   28   98 1    
    60   29   30 am   BACKBONE|DICT|INTERRES
    61   29   99 1    
    62   30   31 2    
    63   30   32 1    
    64   32   33 1    
    65   32   34 1    
    66   32  100 1    
    67   33  101 1    
    68   33  102 1    
    69   33  103 1    
    70   34   35 am   BACKBONE|DICT|INTERRES
    71   34  104 1    
    72   35   36 2    
    73   37   38 2    
    74   37   39 am   BACKBONE|DICT|INTERRES
    75   39   40 1    
    76   39  105 1    
    77   40   41 1    
    78   40   42 1    
    79   40  106 1    
    80   41  107 1    
    81   41  108 1    
    82   41  109 1    
    83   42   43 2    
    84   42   44 am   BACKBONE|DICT|INTERRES
    85   44   45 1    
    86   44  110 1    
    87   45   46 1    
    88   45   47 1    
    89   45  111 1    
    90   46  112 1    
    91   46  113 1    
    92   46  114 1    
    93   47   48 2    
    94   47   49 am   BACKBONE|DICT|INTERRES
    95   49   50 1    
    96   49  115 1    
    97   50   51 1    
    98   50   52 1    
    99   50  116 1    
   100   51  117 1    
   101   51  118 1    
   102   51  119 1    
   103   52   53 2    
   104   52   54 am   BACKBONE|DICT|INTERRES
   105   54   55 1    
   106   54  120 1    
   107   55   56 1    
   108   55   57 1    
   109   55  121 1    
   110   56  122 1    
   111   56  123 1    
   112   56  124 1    
   113   57   58 2    
   114   57   59 am   BACKBONE|DICT|INTERRES
   115   59   60 1    
   116   59  125 1    
   117   60   61 1    
   118   60   62 1    
   119   60  126 1    
   120   61  127 1    
   121   61  128 1    
   122   61  129 1    
   123   62   63 2    
   124   62   64 am   BACKBONE|DICT|INTERRES
   125   64   65 1    
   126   64  130 1    
   127   65   66 1    
   128   65   69 1    
   129   65  131 1    
   130   66   67 am   BACKBONE|DICT|INTERRES
   131   66   68 2    
   132   67  132 1    
   133   67  133 1    
   134   69   70 1    
   135   69  134 1    
   136   69  135 1    
   137   70   71 1    
   138   71  136 1    
   139   71  137 1    
@<TRIPOS>SUBSTRUCTURE
     1 UNK         1 GROUP             0       ****    0 ROOT    
