@<TRIPOS>MOLECULE
3R136
137   139    1
SMALL
USER_CHARGES


@<TRIPOS>ATOM
      1 CA         27.8865   21.1429   -3.9937 C.3       0 UNK        -0.1979 
      2 C          28.3320   22.2752   -3.0811 C.2       0 UNK         0.4864 
      3 O          27.8942   23.4140   -3.2556 O.2       0 UNK        -0.5359 
      4 N          29.1834   21.9742   -2.0895 N.am      1 UNK        -0.4318 
      5 CA         29.7483   22.9468   -1.1437 C.3       1 UNK         0.0824 
      6 C6         31.0712   22.4522   -0.5105 C.3       12 UNK        -0.0944 
      7 S7         30.8830   21.0192    0.6038 S.3       12 UNK        -0.2672 
      8 C8         32.1396   21.3909    1.8714 C.3       12 UNK         0.0333 
      9 C9         31.7595   22.5787    2.7477 C.ar      12 UNK        -0.0807 
     10 C10        32.4633   23.7845    2.6592 C.ar      12 UNK        -0.0894 
     11 C11        32.1394   24.8603    3.4924 C.ar      12 UNK        -0.0804 
     12 C12        31.1075   24.7175    4.4260 C.ar      12 UNK        -0.0824 
     13 C13        30.3782   23.5246    4.5108 C.ar      12 UNK        -0.0762 
     14 C14        30.7176   22.4594    3.6708 C.ar      12 UNK        -0.0782 
     15 C15        29.2351   23.3442    5.5104 C.3       12 UNK         0.0230 
     16 S16        28.1630   24.8068    5.7401 S.3       12 UNK        -0.2608 
     17 C17        27.7286   25.2638    4.0276 C.3       12 UNK        -0.0989 
     18 CA         28.2960   26.6627    3.6694 C.3       5 UNK         0.0716 
     19 N          28.8002   26.7258    2.2976 N.am      5 UNK        -0.4135 
     20 C          29.6107   27.6861    1.8354 C.2       4 UNK         0.5031 
     21 O          30.1200   28.5436    2.5511 O.2       4 UNK        -0.5229 
     22 CA         29.8924   27.7083    0.3233 C.3       4 UNK         0.0329 
     23 CB         31.1878   26.9450   -0.0044 C.3       4 UNK        -0.2001 
     24 N          28.7798   27.1640   -0.4616 N.am      4 UNK        -0.4303 
     25 C          27.5966   27.7743   -0.6252 C.2       3 UNK         0.5044 
     26 O          27.3402   28.8956   -0.1899 O.2       3 UNK        -0.5152 
     27 CA         26.4956   26.9789   -1.3504 C.3       3 UNK         0.0319 
     28 CB         26.6729   27.0695   -2.8738 C.3       3 UNK        -0.2001 
     29 N          26.4528   25.5714   -0.9450 N.am      3 UNK        -0.4354 
     30 C          26.1539   25.1451    0.2929 C.2       2 UNK         0.4964 
     31 O          25.8028   25.8923    1.2051 O.2       2 UNK        -0.5047 
     32 CA         26.3518   23.6448    0.5858 C.3       2 UNK         0.0288 
     33 CB         25.0664   22.8605    0.2810 C.3       2 UNK        -0.2113 
     34 N          27.4714   23.0576   -0.1579 N.am      2 UNK        -0.4145 
     35 C          28.7401   23.4927   -0.1048 C.2       1 UNK         0.5006 
     36 O          29.1084   24.3577    0.6883 O.2       1 UNK        -0.5103 
     37 C          27.2886   27.7944    3.9597 C.2       5 UNK         0.5055 
     38 O          27.3617   28.4107    5.0236 O.2       5 UNK        -0.5220 
     39 N          26.3821   28.0605    3.0062 N.am      6 UNK        -0.4450 
     40 CA         25.4263   29.1698    3.0474 C.3       6 UNK         0.0367 
     41 CB         24.4033   29.0229    1.9093 C.3       6 UNK        -0.1929 
     42 C          26.1292   30.5364    2.9961 C.2       6 UNK         0.5070 
     43 O          25.9075   31.3698    3.8753 O.2       6 UNK        -0.5237 
     44 N          27.0150   30.7258    2.0094 N.am      7 UNK        -0.4739 
     45 CA         27.9097   31.8805    1.8949 C.3       7 UNK         0.0276 
     46 CB         28.2385   32.1106    0.4080 C.3       7 UNK        -0.1927 
     47 C          29.1710   31.6605    2.7514 C.2       7 UNK         0.5013 
     48 O          30.2791   31.6368    2.2131 O.2       7 UNK        -0.5193 
     49 N          28.9608   31.4815    4.0659 N.am      8 UNK        -0.4253 
     50 CA         29.9000   30.9688    5.0761 C.3       8 UNK         0.0242 
     51 CB         29.2792   31.1424    6.4712 C.3       8 UNK        -0.2000 
     52 C          31.3260   31.5440    5.0585 C.2       8 UNK         0.4948 
     53 O          32.2691   30.8187    5.3782 O.2       8 UNK        -0.5275 
     54 N          31.4756   32.8087    4.6398 N.am      9 UNK        -0.4246 
     55 CA         32.7554   33.4882    4.4068 C.3       9 UNK         0.0261 
     56 CB         32.4785   34.9319    3.9565 C.3       9 UNK        -0.1959 
     57 C          33.6888   32.7800    3.4007 C.2       9 UNK         0.5033 
     58 O          34.8908   33.0489    3.4160 O.2       9 UNK        -0.5390 
     59 N          33.1419   31.8804    2.5684 N.am      10 UNK        -0.4215 
     60 CA         33.8823   31.0048    1.6596 C.3       10 UNK         0.0240 
     61 CB         32.8881   30.2589    0.7573 C.3       10 UNK        -0.1982 
     62 C          34.8297   30.0072    2.3570 C.2       10 UNK         0.4970 
     63 O          35.7918   29.5840    1.7137 O.2       10 UNK        -0.4916 
     64 N          34.5819   29.6572    3.6298 N.am      11 UNK        -0.4279 
     65 CA         35.5053   28.8344    4.4322 C.3       11 UNK         0.1003 
     66 C          35.5528   29.1633    5.9511 C.2       11 UNK         0.5709 
     67 N          34.6539   29.9653    6.5069 N.am      11 UNK        -0.7358 
     68 O          36.4580   28.7033    6.6437 O.2       11 UNK        -0.4999 
     69 C69        35.4076   27.3123    4.1233 C.3       12 UNK        -0.0954 
     70 S70        33.9555   26.4592    4.8339 S.3       12 UNK        -0.2268 
     71 C71        32.9005   26.1758    3.3791 C.3       12 UNK         0.0203 
     72 H72        28.3381   20.1915   -3.7131 H         1 UNK         0.0888 
     73 H73        26.8034   21.0307   -3.9518 H         1 UNK         0.0888 
     74 H74        28.1670   21.3607   -5.0238 H         1 UNK         0.0888 
     75 H75        29.4960   21.0205   -1.9676 H         1 UNK         0.3017 
     76 H76        30.0193   23.8217   -1.7391 H         1 UNK         0.0873 
     77 H77        31.7762   22.1773   -1.2966 H         1 UNK         0.0745 
     78 H78        31.5464   23.2746    0.0256 H         1 UNK         0.0745 
     79 H79        33.1017   21.5580    1.3843 H         1 UNK         0.0705 
     80 H80        32.2691   20.5111    2.5032 H         1 UNK         0.0705 
     81 H81        33.2683   23.8837    1.9440 H         1 UNK         0.1334 
     82 H82        30.8730   25.5416    5.0846 H         1 UNK         0.1417 
     83 H83        30.1728   21.5271    3.7340 H         1 UNK         0.1562 
     84 H84        29.6593   23.0691    6.4767 H         1 UNK         0.0748 
     85 H85        28.5983   22.5116    5.2071 H         1 UNK         0.0748 
     86 H86        26.6447   25.2142    3.9037 H         1 UNK         0.0940 
     87 H87        28.1269   24.5044    3.3532 H         1 UNK         0.0940 
     88 H88        29.1602   26.8616    4.3057 H         1 UNK         0.0703 
     89 H89        28.5384   25.9754    1.6676 H         1 UNK         0.3081 
     90 H90        30.0315   28.7524    0.0335 H         1 UNK         0.0719 
     91 H91        31.1309   25.8960    0.2847 H         1 UNK         0.0809 
     92 H92        31.4184   26.9906   -1.0686 H         1 UNK         0.0809 
     93 H93        32.0369   27.3731    0.5284 H         1 UNK         0.0809 
     94 H94        28.8898   26.2225   -0.8071 H         1 UNK         0.2990 
     95 H95        25.5359   27.4310   -1.0911 H         1 UNK         0.0690 
     96 H96        27.5978   26.5944   -3.2041 H         1 UNK         0.0788 
     97 H97        26.7033   28.1095   -3.2022 H         1 UNK         0.0788 
     98 H98        25.8459   26.5895   -3.3975 H         1 UNK         0.0788 
     99 H99        26.7329   24.8887   -1.6379 H         1 UNK         0.2993 
    100 H100       26.5729   23.5438    1.6500 H         1 UNK         0.0949 
    101 H101       24.8091   22.9005   -0.7783 H         1 UNK         0.0767 
    102 H102       25.1646   21.8123    0.5643 H         1 UNK         0.0767 
    103 H103       24.2209   23.2671    0.8382 H         1 UNK         0.0767 
    104 H104       27.2461   22.3473   -0.8384 H         1 UNK         0.3013 
    105 H105       26.3356   27.4464    2.1973 H         1 UNK         0.3121 
    106 H106       24.8876   29.1086    3.9954 H         1 UNK         0.0774 
    107 H107       23.6672   29.8271    1.9415 H         1 UNK         0.0815 
    108 H108       24.8769   29.0535    0.9279 H         1 UNK         0.0815 
    109 H109       23.8593   28.0812    1.9860 H         1 UNK         0.0815 
    110 H110       27.1488   29.9874    1.3206 H         1 UNK         0.2987 
    111 H111       27.4061   32.7747    2.2689 H         1 UNK         0.0949 
    112 H112       28.7687   31.2602   -0.0232 H         1 UNK         0.0806 
    113 H113       27.3340   32.2722   -0.1783 H         1 UNK         0.0806 
    114 H114       28.8718   32.9892    0.2793 H         1 UNK         0.0806 
    115 H115       27.9918   31.5201    4.3611 H         1 UNK         0.3010 
    116 H116       29.9965   29.8985    4.8839 H         1 UNK         0.0829 
    117 H117       29.9363   30.7430    7.2452 H         1 UNK         0.0813 
    118 H118       29.0982   32.1924    6.7042 H         1 UNK         0.0813 
    119 H119       28.3304   30.6110    6.5511 H         1 UNK         0.0813 
    120 H120       30.6423   33.3129    4.3743 H         1 UNK         0.3038 
    121 H121       33.2830   33.5201    5.3622 H         1 UNK         0.0769 
    122 H122       33.4098   35.4793    3.8035 H         1 UNK         0.0811 
    123 H123       31.9036   35.4791    4.7037 H         1 UNK         0.0811 
    124 H124       31.9255   34.9609    3.0166 H         1 UNK         0.0811 
    125 H125       32.1300   31.7562    2.5845 H         1 UNK         0.3204 
    126 H126       34.5006   31.6438    1.0260 H         1 UNK         0.0748 
    127 H127       33.4044   29.6047    0.0535 H         1 UNK         0.0771 
    128 H128       32.2105   29.6421    1.3467 H         1 UNK         0.0771 
    129 H129       32.2823   30.9524    0.1737 H         1 UNK         0.0771 
    130 H130       33.7734   30.0342    4.1103 H         1 UNK         0.2980 
    131 H131       36.5069   29.1310    4.1137 H         1 UNK         0.0545 
    132 H132       33.8387   30.3087    6.0039 H         1 UNK         0.3459 
    133 H133       34.7369   30.1628    7.4908 H         1 UNK         0.3459 
    134 H134       35.4514   27.1427    3.0474 H         1 UNK         0.0616 
    135 H135       36.2915   26.8100    4.5201 H         1 UNK         0.0616 
    136 H136       33.4991   26.1832    2.4677 H         1 UNK         0.0634 
    137 H137       32.1981   27.0043    3.2906 H         1 UNK         0.0634 
@<TRIPOS>BOND
     1    1    2 1    
     2    1   72 1    
     3    1   73 1    
     4    1   74 1    
     5    2    3 2    
     6    2    4 am   BACKBONE|DICT|INTERRES
     7    4    5 1    
     8    4   75 1    
     9    5    6 1    
    10    5   35 1    
    11    5   76 1    
    12    6    7 1    
    13    6   77 1    
    14    6   78 1    
    15    7    8 1    
    16    8    9 1    
    17    8   79 1    
    18    8   80 1    
    19    9   10 ar   
    20    9   14 ar   
    21   10   11 ar   
    22   10   81 1    
    23   11   12 ar   
    24   11   71 1    
    25   12   13 ar   
    26   12   82 1    
    27   13   14 ar   
    28   13   15 1    
    29   14   83 1    
    30   15   16 1    
    31   15   84 1    
    32   15   85 1    
    33   16   17 1    
    34   17   18 1    
    35   17   86 1    
    36   17   87 1    
    37   18   19 1    
    38   18   37 1    
    39   18   88 1    
    40   19   20 am   BACKBONE|DICT|INTERRES
    41   19   89 1    
    42   20   21 2    
    43   20   22 1    
    44   22   23 1    
    45   22   24 1    
    46   22   90 1    
    47   23   91 1    
    48   23   92 1    
    49   23   93 1    
    50   24   25 am   BACKBONE|DICT|INTERRES
    51   24   94 1    
    52   25   26 2    
    53   25   27 1    
    54   27   28 1    
    55   27   29 1    
    56   27   95 1    
    57   28   96 1    
    58   28   97 1    
    59   28   98 1    
    60   29   30 am   BACKBONE|DICT|INTERRES
    61   29   99 1    
    62   30   31 2    
    63   30   32 1    
    64   32   33 1    
    65   32   34 1    
    66   32  100 1    
    67   33  101 1    
    68   33  102 1    
    69   33  103 1    
    70   34   35 am   BACKBONE|DICT|INTERRES
    71   34  104 1    
    72   35   36 2    
    73   37   38 2    
    74   37   39 am   BACKBONE|DICT|INTERRES
    75   39   40 1    
    76   39  105 1    
    77   40   41 1    
    78   40   42 1    
    79   40  106 1    
    80   41  107 1    
    81   41  108 1    
    82   41  109 1    
    83   42   43 2    
    84   42   44 am   BACKBONE|DICT|INTERRES
    85   44   45 1    
    86   44  110 1    
    87   45   46 1    
    88   45   47 1    
    89   45  111 1    
    90   46  112 1    
    91   46  113 1    
    92   46  114 1    
    93   47   48 2    
    94   47   49 am   BACKBONE|DICT|INTERRES
    95   49   50 1    
    96   49  115 1    
    97   50   51 1    
    98   50   52 1    
    99   50  116 1    
   100   51  117 1    
   101   51  118 1    
   102   51  119 1    
   103   52   53 2    
   104   52   54 am   BACKBONE|DICT|INTERRES
   105   54   55 1    
   106   54  120 1    
   107   55   56 1    
   108   55   57 1    
   109   55  121 1    
   110   56  122 1    
   111   56  123 1    
   112   56  124 1    
   113   57   58 2    
   114   57   59 am   BACKBONE|DICT|INTERRES
   115   59   60 1    
   116   59  125 1    
   117   60   61 1    
   118   60   62 1    
   119   60  126 1    
   120   61  127 1    
   121   61  128 1    
   122   61  129 1    
   123   62   63 2    
   124   62   64 am   BACKBONE|DICT|INTERRES
   125   64   65 1    
   126   64  130 1    
   127   65   66 1    
   128   65   69 1    
   129   65  131 1    
   130   66   67 am   BACKBONE|DICT|INTERRES
   131   66   68 2    
   132   67  132 1    
   133   67  133 1    
   134   69   70 1    
   135   69  134 1    
   136   69  135 1    
   137   70   71 1    
   138   71  136 1    
   139   71  137 1    
@<TRIPOS>SUBSTRUCTURE
     1 UNK         1 GROUP             0       ****    0 ROOT    
