@<TRIPOS>MOLECULE
3R136
137   139    1
SMALL
USER_CHARGES


@<TRIPOS>ATOM
      1 CA         28.5435   22.5089   -4.8212 C.3       0 UNK        -0.1979 
      2 C          28.1592   22.9149   -3.4062 C.2       0 UNK         0.4864 
      3 O          27.3834   23.8544   -3.2301 O.2       0 UNK        -0.5359 
      4 N          28.7028   22.2208   -2.3982 N.am      1 UNK        -0.4318 
      5 CA         28.4067   22.4355   -0.9809 C.3       1 UNK         0.0824 
      6 C6         29.4708   21.7511   -0.0861 C.3       12 UNK        -0.0944 
      7 S7         29.3066   22.1638    1.6858 S.3       12 UNK        -0.2672 
      8 C8         31.0399   22.3114    2.2190 C.3       12 UNK         0.0333 
      9 C9         31.5332   23.7479    2.1382 C.ar      12 UNK        -0.0807 
     10 C10        31.4639   24.5755    3.2635 C.ar      12 UNK        -0.0894 
     11 C11        31.9201   25.8966    3.2069 C.ar      12 UNK        -0.0804 
     12 C12        32.4654   26.3800    2.0136 C.ar      12 UNK        -0.0824 
     13 C13        32.5262   25.5671    0.8790 C.ar      12 UNK        -0.0762 
     14 C14        32.0682   24.2484    0.9483 C.ar      12 UNK        -0.0782 
     15 C15        33.0821   26.1236   -0.4209 C.3       12 UNK         0.0230 
     16 S16        31.9129   27.2785   -1.2027 S.3       12 UNK        -0.2608 
     17 C17        30.5725   26.1634   -1.7595 C.3       12 UNK        -0.0989 
     18 CA         29.1806   26.4577   -1.1423 C.3       5 UNK         0.0716 
     19 N          29.1525   26.2855    0.3187 N.am      5 UNK        -0.4135 
     20 C          28.0537   25.9213    0.9924 C.2       4 UNK         0.5031 
     21 O          27.0124   25.5474    0.4432 O.2       4 UNK        -0.5229 
     22 CA         28.0996   25.9865    2.5248 C.3       4 UNK         0.0329 
     23 CB         27.6899   27.3776    3.0307 C.3       4 UNK        -0.2001 
     24 N          27.1523   25.0013    3.0261 N.am      4 UNK        -0.4303 
     25 C          27.3252   24.1576    4.0459 C.2       3 UNK         0.5044 
     26 O          28.2541   24.2346    4.8504 O.2       3 UNK        -0.5152 
     27 CA         26.3240   22.9884    4.1596 C.3       3 UNK         0.0319 
     28 CB         25.1860   23.3073    5.1496 C.3       3 UNK        -0.2001 
     29 N          25.8238   22.5117    2.8558 N.am      3 UNK        -0.4354 
     30 C          24.9616   23.1053    2.0150 C.2       2 UNK         0.4964 
     31 O          24.3464   24.1398    2.2737 O.2       2 UNK        -0.5047 
     32 CA         24.9030   22.5137    0.6011 C.3       2 UNK         0.0288 
     33 CB         23.7610   23.0939   -0.2544 C.3       2 UNK        -0.2113 
     34 N          26.1852   22.8251   -0.0249 N.am      2 UNK        -0.4145 
     35 C          26.9800   21.9492   -0.6473 C.2       1 UNK         0.5006 
     36 O          26.6539   20.7897   -0.9155 O.2       1 UNK        -0.5103 
     37 C          28.6410   27.8428   -1.5631 C.2       5 UNK         0.5055 
     38 O          28.0820   27.9770   -2.6527 O.2       5 UNK        -0.5220 
     39 N          28.8190   28.8390   -0.6900 N.am      6 UNK        -0.4450 
     40 CA         28.4531   30.2430   -0.8259 C.3       6 UNK         0.0367 
     41 CB         29.3314   30.9273   -1.8935 C.3       6 UNK        -0.1929 
     42 C          28.6694   30.8817    0.5524 C.2       6 UNK         0.5070 
     43 O          29.2334   30.2344    1.4397 O.2       6 UNK        -0.5237 
     44 N          28.2624   32.1461    0.7157 N.am      7 UNK        -0.4739 
     45 CA         28.4417   32.9379    1.9412 C.3       7 UNK         0.0276 
     46 CB         27.4388   34.1072    1.9279 C.3       7 UNK        -0.1927 
     47 C          29.9010   33.4079    2.1432 C.2       7 UNK         0.5013 
     48 O          30.1555   34.6068    2.2775 O.2       7 UNK        -0.5193 
     49 N          30.8369   32.4533    2.1325 N.am      8 UNK        -0.4253 
     50 CA         32.2674   32.6553    2.3401 C.3       8 UNK         0.0242 
     51 CB         33.0221   31.4508    1.7511 C.3       8 UNK        -0.2000 
     52 C          32.5880   32.7992    3.8336 C.2       8 UNK         0.4948 
     53 O          31.9436   32.1542    4.6641 O.2       8 UNK        -0.5275 
     54 N          33.6324   33.5797    4.1461 N.am      9 UNK        -0.4246 
     55 CA         34.1497   33.7780    5.5075 C.3       9 UNK         0.0261 
     56 CB         35.2599   34.8408    5.4846 C.3       9 UNK        -0.1959 
     57 C          34.6560   32.4828    6.1701 C.2       9 UNK         0.5033 
     58 O          34.5756   32.3555    7.3927 O.2       9 UNK        -0.5390 
     59 N          35.1159   31.5276    5.3482 N.am      10 UNK        -0.4215 
     60 CA         35.5159   30.1748    5.7440 C.3       10 UNK         0.0240 
     61 CB         36.0745   29.4386    4.5148 C.3       10 UNK        -0.1982 
     62 C          34.3875   29.3479    6.3900 C.2       10 UNK         0.4970 
     63 O          34.6893   28.4337    7.1581 O.2       10 UNK        -0.4916 
     64 N          33.1251   29.6771    6.0835 N.am      11 UNK        -0.4279 
     65 CA         31.9376   29.0684    6.6980 C.3       11 UNK         0.1003 
     66 C          31.5681   29.6751    8.0840 C.2       11 UNK         0.5709 
     67 N          32.2463   30.7081    8.5740 N.am      11 UNK        -0.7358 
     68 O          30.6520   29.1857    8.7405 O.2       11 UNK        -0.4999 
     69 C69        30.7190   29.0744    5.7346 C.3       12 UNK        -0.0954 
     70 S70        31.0333   28.3902    4.0705 S.3       12 UNK        -0.2268 
     71 C71        31.8284   26.7914    4.4370 C.3       12 UNK         0.0203 
     72 H72        29.2307   21.6626   -4.8311 H         1 UNK         0.0888 
     73 H73        27.6538   22.2298   -5.3858 H         1 UNK         0.0888 
     74 H74        29.0245   23.3427   -5.3326 H         1 UNK         0.0888 
     75 H75        29.3048   21.4369   -2.6064 H         1 UNK         0.3017 
     76 H76        28.4623   23.5088   -0.7969 H         1 UNK         0.0873 
     77 H77        29.4276   20.6653   -0.1920 H         1 UNK         0.0745 
     78 H78        30.4653   22.0435   -0.4234 H         1 UNK         0.0745 
     79 H79        31.6771   21.6518    1.6280 H         1 UNK         0.0705 
     80 H80        31.1139   21.9547    3.2475 H         1 UNK         0.0705 
     81 H81        31.0400   24.1919    4.1821 H         1 UNK         0.1334 
     82 H82        32.8236   27.3995    1.9605 H         1 UNK         0.1417 
     83 H83        32.1259   23.6132    0.0757 H         1 UNK         0.1562 
     84 H84        33.3298   25.3233   -1.1201 H         1 UNK         0.0748 
     85 H85        34.0154   26.6506   -0.2174 H         1 UNK         0.0748 
     86 H86        30.8450   25.1277   -1.5547 H         1 UNK         0.0940 
     87 H87        30.5148   26.2290   -2.8478 H         1 UNK         0.0940 
     88 H88        28.4952   25.7324   -1.5843 H         1 UNK         0.0703 
     89 H89        29.9961   26.5302    0.8196 H         1 UNK         0.3081 
     90 H90        29.1060   25.7505    2.8653 H         1 UNK         0.0719 
     91 H91        28.3775   28.1406    2.6699 H         1 UNK         0.0809 
     92 H92        27.7055   27.4213    4.1198 H         1 UNK         0.0809 
     93 H93        26.6889   27.6529    2.6958 H         1 UNK         0.0809 
     94 H94        26.3419   24.8652    2.4313 H         1 UNK         0.2990 
     95 H95        26.8852   22.1488    4.5733 H         1 UNK         0.0690 
     96 H96        24.4908   22.4726    5.2388 H         1 UNK         0.0788 
     97 H97        24.6182   24.1900    4.8544 H         1 UNK         0.0788 
     98 H98        25.5866   23.5043    6.1447 H         1 UNK         0.0788 
     99 H99        26.3104   21.6975    2.5045 H         1 UNK         0.2993 
    100 H100       24.7604   21.4347    0.6946 H         1 UNK         0.0949 
    101 H101       22.7923   22.9136    0.2134 H         1 UNK         0.0767 
    102 H102       23.8656   24.1712   -0.3921 H         1 UNK         0.0767 
    103 H103       23.7373   22.6333   -1.2422 H         1 UNK         0.0767 
    104 H104       26.5214   23.7752    0.1277 H         1 UNK         0.3013 
    105 H105       29.2637   28.6487    0.2009 H         1 UNK         0.3121 
    106 H106       27.3973   30.3170   -1.0929 H         1 UNK         0.0774 
    107 H107       29.0837   31.9844   -1.9943 H         1 UNK         0.0815 
    108 H108       30.3909   30.8619   -1.6414 H         1 UNK         0.0815 
    109 H109       29.1952   30.4753   -2.8758 H         1 UNK         0.0815 
    110 H110       27.8389   32.6237   -0.0673 H         1 UNK         0.2987 
    111 H111       28.1975   32.3056    2.7982 H         1 UNK         0.0949 
    112 H112       26.4120   33.7491    1.8509 H         1 UNK         0.0806 
    113 H113       27.5063   34.6912    2.8469 H         1 UNK         0.0806 
    114 H114       27.6220   34.7871    1.0949 H         1 UNK         0.0806 
    115 H115       30.5146   31.4930    2.0411 H         1 UNK         0.3010 
    116 H116       32.5757   33.5617    1.8145 H         1 UNK         0.0829 
    117 H117       32.8045   31.3274    0.6899 H         1 UNK         0.0813 
    118 H118       34.1013   31.5751    1.8469 H         1 UNK         0.0813 
    119 H119       32.7531   30.5209    2.2554 H         1 UNK         0.0813 
    120 H120       34.1128   34.0705    3.4048 H         1 UNK         0.3038 
    121 H121       33.3274   34.1543    6.1202 H         1 UNK         0.0769 
    122 H122       36.1031   34.5332    4.8646 H         1 UNK         0.0811 
    123 H123       35.6443   35.0240    6.4892 H         1 UNK         0.0811 
    124 H124       34.8911   35.7934    5.1036 H         1 UNK         0.0811 
    125 H125       35.1482   31.7360    4.3614 H         1 UNK         0.3204 
    126 H126       36.3136   30.2703    6.4835 H         1 UNK         0.0748 
    127 H127       36.4109   28.4351    4.7801 H         1 UNK         0.0771 
    128 H128       35.3225   29.3324    3.7314 H         1 UNK         0.0771 
    129 H129       36.9315   29.9629    4.0914 H         1 UNK         0.0771 
    130 H130       32.9396   30.4614    5.4692 H         1 UNK         0.2980 
    131 H131       32.1696   28.0238    6.9101 H         1 UNK         0.0545 
    132 H132       33.0116   31.1274    8.0600 H         1 UNK         0.3459 
    133 H133       31.9904   31.0766    9.4759 H         1 UNK         0.3459 
    134 H134       30.3510   30.0932    5.6016 H         1 UNK         0.0616 
    135 H135       29.8918   28.5094    6.1679 H         1 UNK         0.0616 
    136 H136       31.2651   26.2949    5.2289 H         1 UNK         0.0634 
    137 H137       32.8345   26.9647    4.8204 H         1 UNK         0.0634 
@<TRIPOS>BOND
     1    1    2 1    
     2    1   72 1    
     3    1   73 1    
     4    1   74 1    
     5    2    3 2    
     6    2    4 am   BACKBONE|DICT|INTERRES
     7    4    5 1    
     8    4   75 1    
     9    5    6 1    
    10    5   35 1    
    11    5   76 1    
    12    6    7 1    
    13    6   77 1    
    14    6   78 1    
    15    7    8 1    
    16    8    9 1    
    17    8   79 1    
    18    8   80 1    
    19    9   10 ar   
    20    9   14 ar   
    21   10   11 ar   
    22   10   81 1    
    23   11   12 ar   
    24   11   71 1    
    25   12   13 ar   
    26   12   82 1    
    27   13   14 ar   
    28   13   15 1    
    29   14   83 1    
    30   15   16 1    
    31   15   84 1    
    32   15   85 1    
    33   16   17 1    
    34   17   18 1    
    35   17   86 1    
    36   17   87 1    
    37   18   19 1    
    38   18   37 1    
    39   18   88 1    
    40   19   20 am   BACKBONE|DICT|INTERRES
    41   19   89 1    
    42   20   21 2    
    43   20   22 1    
    44   22   23 1    
    45   22   24 1    
    46   22   90 1    
    47   23   91 1    
    48   23   92 1    
    49   23   93 1    
    50   24   25 am   BACKBONE|DICT|INTERRES
    51   24   94 1    
    52   25   26 2    
    53   25   27 1    
    54   27   28 1    
    55   27   29 1    
    56   27   95 1    
    57   28   96 1    
    58   28   97 1    
    59   28   98 1    
    60   29   30 am   BACKBONE|DICT|INTERRES
    61   29   99 1    
    62   30   31 2    
    63   30   32 1    
    64   32   33 1    
    65   32   34 1    
    66   32  100 1    
    67   33  101 1    
    68   33  102 1    
    69   33  103 1    
    70   34   35 am   BACKBONE|DICT|INTERRES
    71   34  104 1    
    72   35   36 2    
    73   37   38 2    
    74   37   39 am   BACKBONE|DICT|INTERRES
    75   39   40 1    
    76   39  105 1    
    77   40   41 1    
    78   40   42 1    
    79   40  106 1    
    80   41  107 1    
    81   41  108 1    
    82   41  109 1    
    83   42   43 2    
    84   42   44 am   BACKBONE|DICT|INTERRES
    85   44   45 1    
    86   44  110 1    
    87   45   46 1    
    88   45   47 1    
    89   45  111 1    
    90   46  112 1    
    91   46  113 1    
    92   46  114 1    
    93   47   48 2    
    94   47   49 am   BACKBONE|DICT|INTERRES
    95   49   50 1    
    96   49  115 1    
    97   50   51 1    
    98   50   52 1    
    99   50  116 1    
   100   51  117 1    
   101   51  118 1    
   102   51  119 1    
   103   52   53 2    
   104   52   54 am   BACKBONE|DICT|INTERRES
   105   54   55 1    
   106   54  120 1    
   107   55   56 1    
   108   55   57 1    
   109   55  121 1    
   110   56  122 1    
   111   56  123 1    
   112   56  124 1    
   113   57   58 2    
   114   57   59 am   BACKBONE|DICT|INTERRES
   115   59   60 1    
   116   59  125 1    
   117   60   61 1    
   118   60   62 1    
   119   60  126 1    
   120   61  127 1    
   121   61  128 1    
   122   61  129 1    
   123   62   63 2    
   124   62   64 am   BACKBONE|DICT|INTERRES
   125   64   65 1    
   126   64  130 1    
   127   65   66 1    
   128   65   69 1    
   129   65  131 1    
   130   66   67 am   BACKBONE|DICT|INTERRES
   131   66   68 2    
   132   67  132 1    
   133   67  133 1    
   134   69   70 1    
   135   69  134 1    
   136   69  135 1    
   137   70   71 1    
   138   71  136 1    
   139   71  137 1    
@<TRIPOS>SUBSTRUCTURE
     1 UNK         1 GROUP             0       ****    0 ROOT    
