@<TRIPOS>MOLECULE
3R136
137   139    1
SMALL
USER_CHARGES


@<TRIPOS>ATOM
      1 CA         33.9499   24.3021    0.3681 C.3       0 UNK        -0.1979 
      2 C          32.8466   23.2676    0.5363 C.2       0 UNK         0.4864 
      3 O          33.0438   22.1058    0.1792 O.2       0 UNK        -0.5359 
      4 N          31.6916   23.6864    1.0750 N.am      1 UNK        -0.4318 
      5 CA         30.4834   22.8787    1.2899 C.3       1 UNK         0.0824 
      6 C6         30.7237   21.7168    2.2942 C.3       12 UNK        -0.0944 
      7 S7         29.2361   21.2859    3.2575 S.3       12 UNK        -0.2672 
      8 C8         29.6529   21.9419    4.9023 C.3       12 UNK         0.0333 
      9 C9         29.3605   23.4310    5.0165 C.ar      12 UNK        -0.0807 
     10 C10        30.3809   24.3774    4.8719 C.ar      12 UNK        -0.0894 
     11 C11        30.1148   25.7390    5.0577 C.ar      12 UNK        -0.0804 
     12 C12        28.8192   26.1472    5.3918 C.ar      12 UNK        -0.0824 
     13 C13        27.7850   25.2141    5.5007 C.ar      12 UNK        -0.0762 
     14 C14        28.0631   23.8577    5.3137 C.ar      12 UNK        -0.0782 
     15 C15        26.3707   25.6599    5.8399 C.3       12 UNK         0.0230 
     16 S16        25.4458   26.1486    4.3486 S.3       12 UNK        -0.2608 
     17 C17        25.8923   27.9099    4.1771 C.3       12 UNK        -0.0989 
     18 CA         26.9037   28.1908    3.0355 C.3       5 UNK         0.0716 
     19 N          26.3651   27.8630    1.7182 N.am      5 UNK        -0.4135 
     20 C          26.7841   26.8754    0.9232 C.2       4 UNK         0.5031 
     21 O          27.6361   26.0396    1.2339 O.2       4 UNK        -0.5229 
     22 CA         26.1802   26.8741   -0.4916 C.3       4 UNK         0.0329 
     23 CB         26.9845   27.8105   -1.4094 C.3       4 UNK        -0.2001 
     24 N          26.1701   25.5400   -1.0855 N.am      4 UNK        -0.4303 
     25 C          25.4122   24.5085   -0.6978 C.2       3 UNK         0.5044 
     26 O          24.5299   24.5945    0.1573 O.2       3 UNK        -0.5152 
     27 CA         25.6775   23.1427   -1.3656 C.3       3 UNK         0.0319 
     28 CB         24.8073   22.9607   -2.6246 C.3       3 UNK        -0.2001 
     29 N          27.0959   22.8574   -1.6403 N.am      3 UNK        -0.4354 
     30 C          27.9340   23.4623   -2.4955 C.2       2 UNK         0.4964 
     31 O          27.5994   24.3723   -3.2559 O.2       2 UNK        -0.5047 
     32 CA         29.4054   23.0216   -2.4242 C.3       2 UNK         0.0288 
     33 CB         30.2973   23.7496   -3.4478 C.3       2 UNK        -0.2113 
     34 N          29.9383   23.2661   -1.0836 N.am      2 UNK        -0.4145 
     35 C          29.8368   22.4265   -0.0437 C.2       1 UNK         0.5006 
     36 O          29.2502   21.3443   -0.1225 O.2       1 UNK        -0.5103 
     37 C          27.2607   29.6863    3.0141 C.2       5 UNK         0.5055 
     38 O          26.6418   30.4531    2.2695 O.2       5 UNK        -0.5220 
     39 N          28.2173   30.0826    3.8559 N.am      6 UNK        -0.4450 
     40 CA         28.6651   31.4555    4.0550 C.3       6 UNK         0.0367 
     41 CB         29.6618   31.8440    2.9465 C.3       6 UNK        -0.1929 
     42 C          29.3060   31.5532    5.4453 C.2       6 UNK         0.5070 
     43 O          29.6683   30.5258    6.0250 O.2       6 UNK        -0.5237 
     44 N          29.4327   32.7844    5.9572 N.am      7 UNK        -0.4739 
     45 CA         30.1174   33.0785    7.2227 C.3       7 UNK         0.0276 
     46 CB         29.6363   34.4371    7.7583 C.3       7 UNK        -0.1927 
     47 C          31.6506   33.0677    7.0787 C.2       7 UNK         0.5013 
     48 O          32.3496   32.7569    8.0441 O.2       7 UNK        -0.5193 
     49 N          32.1348   33.4051    5.8779 N.am      8 UNK        -0.4253 
     50 CA         33.5325   33.3086    5.4607 C.3       8 UNK         0.0242 
     51 CB         33.8646   34.5351    4.5916 C.3       8 UNK        -0.2000 
     52 C          33.7422   32.0113    4.6646 C.2       8 UNK         0.4948 
     53 O          32.7705   31.3356    4.3163 O.2       8 UNK        -0.5275 
     54 N          35.0026   31.7031    4.3321 N.am      9 UNK        -0.4246 
     55 CA         35.4121   30.5522    3.5151 C.3       9 UNK         0.0261 
     56 CB         36.9171   30.3013    3.7282 C.3       9 UNK        -0.1959 
     57 C          35.0413   30.7067    2.0212 C.2       9 UNK         0.5033 
     58 O          35.9112   30.6194    1.1526 O.2       9 UNK        -0.5390 
     59 N          33.7518   30.9399    1.7580 N.am      10 UNK        -0.4215 
     60 CA         33.1431   31.1336    0.4400 C.3       10 UNK         0.0240 
     61 CB         32.5937   32.5701    0.3565 C.3       10 UNK        -0.1982 
     62 C          32.0502   30.0833    0.1637 C.2       10 UNK         0.4970 
     63 O          31.2113   30.2952   -0.7124 O.2       10 UNK        -0.4916 
     64 N          32.0740   28.9720    0.9106 N.am      11 UNK        -0.4279 
     65 CA         31.1170   27.8560    0.8266 C.3       11 UNK         0.1003 
     66 C          31.2774   26.9529   -0.4334 C.2       11 UNK         0.5709 
     67 N          32.2557   27.1731   -1.3024 N.am      11 UNK        -0.7358 
     68 O          30.5154   26.0084   -0.6131 O.2       11 UNK        -0.4999 
     69 C69        31.1283   27.0028    2.1256 C.3       12 UNK        -0.0954 
     70 S70        30.9033   27.9984    3.6336 S.3       12 UNK        -0.2268 
     71 C71        31.2299   26.7699    4.9369 C.3       12 UNK         0.0203 
     72 H72        34.1259   24.4914   -0.6905 H         1 UNK         0.0888 
     73 H73        33.7030   25.2496    0.8451 H         1 UNK         0.0888 
     74 H74        34.8775   23.9367    0.8079 H         1 UNK         0.0888 
     75 H75        31.5903   24.6610    1.3141 H         1 UNK         0.3017 
     76 H76        29.7665   23.5691    1.7393 H         1 UNK         0.0873 
     77 H77        31.0877   20.8227    1.7844 H         1 UNK         0.0745 
     78 H78        31.5168   21.9863    2.9926 H         1 UNK         0.0745 
     79 H79        29.0639   21.4028    5.6459 H         1 UNK         0.0705 
     80 H80        30.6957   21.7297    5.1429 H         1 UNK         0.0705 
     81 H81        31.3848   24.0511    4.6371 H         1 UNK         0.1334 
     82 H82        28.6163   27.1959    5.5566 H         1 UNK         0.1417 
     83 H83        27.2703   23.1283    5.4121 H         1 UNK         0.1562 
     84 H84        26.3885   26.4728    6.5670 H         1 UNK         0.0748 
     85 H85        25.8331   24.8431    6.3241 H         1 UNK         0.0748 
     86 H86        26.2789   28.2736    5.1307 H         1 UNK         0.0940 
     87 H87        24.9678   28.4656    4.0069 H         1 UNK         0.0940 
     88 H88        27.8217   27.6273    3.2115 H         1 UNK         0.0703 
     89 H89        25.7325   28.5599    1.3485 H         1 UNK         0.3081 
     90 H90        25.1485   27.2281   -0.4364 H         1 UNK         0.0719 
     91 H91        28.0221   27.4850   -1.5027 H         1 UNK         0.0809 
     92 H92        26.5552   27.8510   -2.4107 H         1 UNK         0.0809 
     93 H93        26.9968   28.8299   -1.0211 H         1 UNK         0.0809 
     94 H94        26.8495   25.3591   -1.8179 H         1 UNK         0.2990 
     95 H95        25.3672   22.3848   -0.6444 H         1 UNK         0.0690 
     96 H96        24.9452   21.9722   -3.0627 H         1 UNK         0.0788 
     97 H97        25.0341   23.7026   -3.3907 H         1 UNK         0.0788 
     98 H98        23.7489   23.0629   -2.3815 H         1 UNK         0.0788 
     99 H99        27.5127   22.1562   -1.0364 H         1 UNK         0.2993 
    100 H100       29.4420   21.9529   -2.6468 H         1 UNK         0.0949 
    101 H101       30.3052   24.8278   -3.2811 H         1 UNK         0.0767 
    102 H102       31.3272   23.3959   -3.3962 H         1 UNK         0.0767 
    103 H103       29.9455   23.5772   -4.4659 H         1 UNK         0.0767 
    104 H104       30.3248   24.1938   -0.9200 H         1 UNK         0.3013 
    105 H105       28.6828   29.4204    4.4662 H         1 UNK         0.3121 
    106 H106       27.8023   32.1247    4.0276 H         1 UNK         0.0774 
    107 H107       30.0569   32.8485    3.0992 H         1 UNK         0.0815 
    108 H108       29.1905   31.8284    1.9637 H         1 UNK         0.0815 
    109 H109       30.5089   31.1581    2.9169 H         1 UNK         0.0815 
    110 H110       29.0790   33.5736    5.4343 H         1 UNK         0.2987 
    111 H111       29.8511   32.3112    7.9537 H         1 UNK         0.0949 
    112 H112       28.5594   34.4381    7.9277 H         1 UNK         0.0806 
    113 H113       30.1126   34.6701    8.7118 H         1 UNK         0.0806 
    114 H114       29.8700   35.2508    7.0706 H         1 UNK         0.0806 
    115 H115       31.4670   33.5688    5.1399 H         1 UNK         0.3010 
    116 H116       34.1903   33.2946    6.3324 H         1 UNK         0.0829 
    117 H117       34.9157   34.5448    4.3011 H         1 UNK         0.0813 
    118 H118       33.2731   34.5543    3.6749 H         1 UNK         0.0813 
    119 H119       33.6744   35.4636    5.1304 H         1 UNK         0.0813 
    120 H120       35.7423   32.3268    4.6221 H         1 UNK         0.3038 
    121 H121       34.8788   29.6718    3.8808 H         1 UNK         0.0769 
    122 H122       37.5194   31.1443    3.3870 H         1 UNK         0.0811 
    123 H123       37.2490   29.4195    3.1783 H         1 UNK         0.0811 
    124 H124       37.1463   30.1276    4.7798 H         1 UNK         0.0811 
    125 H125       33.1324   31.0157    2.5659 H         1 UNK         0.3204 
    126 H126       33.8946   31.0098   -0.3422 H         1 UNK         0.0748 
    127 H127       32.1790   32.7787   -0.6306 H         1 UNK         0.0771 
    128 H128       31.8037   32.7427    1.0876 H         1 UNK         0.0771 
    129 H129       33.3799   33.3038    0.5357 H         1 UNK         0.0771 
    130 H130       32.7983   28.8766    1.6056 H         1 UNK         0.2980 
    131 H131       30.1212   28.2956    0.7411 H         1 UNK         0.0545 
    132 H132       32.8903   27.9440   -1.1764 H         1 UNK         0.3459 
    133 H133       32.3380   26.5793   -2.1114 H         1 UNK         0.3459 
    134 H134       32.0699   26.4603    2.2183 H         1 UNK         0.0616 
    135 H135       30.3305   26.2577    2.1018 H         1 UNK         0.0616 
    136 H136       32.1921   26.2917    4.7476 H         1 UNK         0.0634 
    137 H137       31.3286   27.2938    5.8886 H         1 UNK         0.0634 
@<TRIPOS>BOND
     1    1    2 1    
     2    1   72 1    
     3    1   73 1    
     4    1   74 1    
     5    2    3 2    
     6    2    4 am   BACKBONE|DICT|INTERRES
     7    4    5 1    
     8    4   75 1    
     9    5    6 1    
    10    5   35 1    
    11    5   76 1    
    12    6    7 1    
    13    6   77 1    
    14    6   78 1    
    15    7    8 1    
    16    8    9 1    
    17    8   79 1    
    18    8   80 1    
    19    9   10 ar   
    20    9   14 ar   
    21   10   11 ar   
    22   10   81 1    
    23   11   12 ar   
    24   11   71 1    
    25   12   13 ar   
    26   12   82 1    
    27   13   14 ar   
    28   13   15 1    
    29   14   83 1    
    30   15   16 1    
    31   15   84 1    
    32   15   85 1    
    33   16   17 1    
    34   17   18 1    
    35   17   86 1    
    36   17   87 1    
    37   18   19 1    
    38   18   37 1    
    39   18   88 1    
    40   19   20 am   BACKBONE|DICT|INTERRES
    41   19   89 1    
    42   20   21 2    
    43   20   22 1    
    44   22   23 1    
    45   22   24 1    
    46   22   90 1    
    47   23   91 1    
    48   23   92 1    
    49   23   93 1    
    50   24   25 am   BACKBONE|DICT|INTERRES
    51   24   94 1    
    52   25   26 2    
    53   25   27 1    
    54   27   28 1    
    55   27   29 1    
    56   27   95 1    
    57   28   96 1    
    58   28   97 1    
    59   28   98 1    
    60   29   30 am   BACKBONE|DICT|INTERRES
    61   29   99 1    
    62   30   31 2    
    63   30   32 1    
    64   32   33 1    
    65   32   34 1    
    66   32  100 1    
    67   33  101 1    
    68   33  102 1    
    69   33  103 1    
    70   34   35 am   BACKBONE|DICT|INTERRES
    71   34  104 1    
    72   35   36 2    
    73   37   38 2    
    74   37   39 am   BACKBONE|DICT|INTERRES
    75   39   40 1    
    76   39  105 1    
    77   40   41 1    
    78   40   42 1    
    79   40  106 1    
    80   41  107 1    
    81   41  108 1    
    82   41  109 1    
    83   42   43 2    
    84   42   44 am   BACKBONE|DICT|INTERRES
    85   44   45 1    
    86   44  110 1    
    87   45   46 1    
    88   45   47 1    
    89   45  111 1    
    90   46  112 1    
    91   46  113 1    
    92   46  114 1    
    93   47   48 2    
    94   47   49 am   BACKBONE|DICT|INTERRES
    95   49   50 1    
    96   49  115 1    
    97   50   51 1    
    98   50   52 1    
    99   50  116 1    
   100   51  117 1    
   101   51  118 1    
   102   51  119 1    
   103   52   53 2    
   104   52   54 am   BACKBONE|DICT|INTERRES
   105   54   55 1    
   106   54  120 1    
   107   55   56 1    
   108   55   57 1    
   109   55  121 1    
   110   56  122 1    
   111   56  123 1    
   112   56  124 1    
   113   57   58 2    
   114   57   59 am   BACKBONE|DICT|INTERRES
   115   59   60 1    
   116   59  125 1    
   117   60   61 1    
   118   60   62 1    
   119   60  126 1    
   120   61  127 1    
   121   61  128 1    
   122   61  129 1    
   123   62   63 2    
   124   62   64 am   BACKBONE|DICT|INTERRES
   125   64   65 1    
   126   64  130 1    
   127   65   66 1    
   128   65   69 1    
   129   65  131 1    
   130   66   67 am   BACKBONE|DICT|INTERRES
   131   66   68 2    
   132   67  132 1    
   133   67  133 1    
   134   69   70 1    
   135   69  134 1    
   136   69  135 1    
   137   70   71 1    
   138   71  136 1    
   139   71  137 1    
@<TRIPOS>SUBSTRUCTURE
     1 UNK         1 GROUP             0       ****    0 ROOT    
