@<TRIPOS>MOLECULE
3R136
137   139    1
SMALL
USER_CHARGES


@<TRIPOS>ATOM
      1 CA         23.6944   24.9365    0.8995 C.3       0 UNK        -0.1979 
      2 C          25.1274   24.4315    0.9600 C.2       0 UNK         0.4864 
      3 O          25.9713   24.8857    0.1821 O.2       0 UNK        -0.5359 
      4 N          25.4028   23.4939    1.8766 N.am      1 UNK        -0.4318 
      5 CA         26.7084   22.8878    2.1541 C.3       1 UNK         0.0824 
      6 C6         27.7013   23.8921    2.8064 C.3       12 UNK        -0.0944 
      7 S7         28.9889   23.0511    3.7866 S.3       12 UNK        -0.2672 
      8 C8         30.4679   23.2379    2.7408 C.3       12 UNK         0.0333 
      9 C9         31.0061   24.6609    2.7624 C.ar      12 UNK        -0.0807 
     10 C10        31.7331   25.1105    3.8681 C.ar      12 UNK        -0.0894 
     11 C11        32.2589   26.4044    3.8917 C.ar      12 UNK        -0.0804 
     12 C12        32.0521   27.2538    2.8020 C.ar      12 UNK        -0.0824 
     13 C13        31.3169   26.8197    1.6953 C.ar      12 UNK        -0.0762 
     14 C14        30.8027   25.5194    1.6767 C.ar      12 UNK        -0.0782 
     15 C15        31.0907   27.7561    0.5192 C.3       12 UNK         0.0230 
     16 S16        29.6028   28.7734    0.7633 S.3       12 UNK        -0.2608 
     17 C17        28.2742   27.5993    0.3221 C.3       12 UNK        -0.0989 
     18 CA         26.9377   28.3203    0.0091 C.3       5 UNK         0.0716 
     19 N          26.0559   27.4779   -0.7968 N.am      5 UNK        -0.4135 
     20 C          25.1231   27.9368   -1.6402 C.2       4 UNK         0.5031 
     21 O          24.9648   29.1328   -1.8933 O.2       4 UNK        -0.5229 
     22 CA         24.2401   26.8833   -2.3313 C.3       4 UNK         0.0329 
     23 CB         23.4662   27.4438   -3.5432 C.3       4 UNK        -0.2001 
     24 N          25.0415   25.7269   -2.7362 N.am      4 UNK        -0.4303 
     25 C          24.5765   24.4810   -2.8917 C.2       3 UNK         0.5044 
     26 O          23.4090   24.1463   -2.6902 O.2       3 UNK        -0.5152 
     27 CA         25.5965   23.4300   -3.3383 C.3       3 UNK         0.0319 
     28 CB         26.1869   23.7882   -4.7208 C.3       3 UNK        -0.2001 
     29 N          26.6374   23.2845   -2.3187 N.am      3 UNK        -0.4354 
     30 C          27.5876   22.3378   -2.3147 C.2       2 UNK         0.4964 
     31 O          27.6890   21.4622   -3.1747 O.2       2 UNK        -0.5047 
     32 CA         28.6085   22.3641   -1.1649 C.3       2 UNK         0.0288 
     33 CB         29.8223   23.2290   -1.5455 C.3       2 UNK        -0.2113 
     34 N          28.0390   22.8612    0.0856 N.am      2 UNK        -0.4145 
     35 C          27.2656   22.1495    0.9162 C.2       1 UNK         0.5006 
     36 O          26.9725   20.9663    0.7350 O.2       1 UNK        -0.5103 
     37 C          26.2158   28.7401    1.3038 C.2       5 UNK         0.5055 
     38 O          25.3925   27.9870    1.8285 O.2       5 UNK        -0.5220 
     39 N          26.5939   29.9104    1.8284 N.am      6 UNK        -0.4450 
     40 CA         26.1602   30.4326    3.1272 C.3       6 UNK         0.0367 
     41 CB         25.9944   31.9591    3.0082 C.3       6 UNK        -0.1929 
     42 C          27.1374   30.0613    4.2637 C.2       6 UNK         0.5070 
     43 O          27.0621   30.6684    5.3320 O.2       6 UNK        -0.5237 
     44 N          28.0464   29.1038    4.0092 N.am      7 UNK        -0.4739 
     45 CA         29.1920   28.7053    4.8392 C.3       7 UNK         0.0276 
     46 CB         28.7396   28.0992    6.1843 C.3       7 UNK        -0.1927 
     47 C          30.1795   29.8773    4.9916 C.2       7 UNK         0.5013 
     48 O          30.3712   30.3967    6.0930 O.2       7 UNK        -0.5193 
     49 N          30.7233   30.3044    3.8427 N.am      8 UNK        -0.4253 
     50 CA         31.5882   31.4726    3.6616 C.3       8 UNK         0.0242 
     51 CB         31.9787   31.5616    2.1762 C.3       8 UNK        -0.2000 
     52 C          32.8527   31.4806    4.5397 C.2       8 UNK         0.4948 
     53 O          33.3924   30.4231    4.8716 O.2       8 UNK        -0.5275 
     54 N          33.3413   32.6947    4.8321 N.am      9 UNK        -0.4246 
     55 CA         34.4983   32.9892    5.6892 C.3       9 UNK         0.0261 
     56 CB         34.6208   34.5138    5.8520 C.3       9 UNK        -0.1959 
     57 C          35.8437   32.3893    5.2341 C.2       9 UNK         0.5033 
     58 O          36.7859   32.3749    6.0277 O.2       9 UNK        -0.5390 
     59 N          35.9135   31.8768    3.9970 N.am      10 UNK        -0.4215 
     60 CA         37.0496   31.1442    3.4281 C.3       10 UNK         0.0240 
     61 CB         36.7145   30.7477    1.9807 C.3       10 UNK        -0.1982 
     62 C          37.4733   29.9029    4.2392 C.2       10 UNK         0.4970 
     63 O          38.6454   29.5283    4.1819 O.2       10 UNK        -0.4916 
     64 N          36.5364   29.3080    4.9914 N.am      11 UNK        -0.4279 
     65 CA         36.8095   28.2362    5.9626 C.3       11 UNK         0.1003 
     66 C          37.5219   28.7107    7.2652 C.2       11 UNK         0.5709 
     67 N          37.6765   30.0047    7.5240 N.am      11 UNK        -0.7358 
     68 O          37.9572   27.8795    8.0588 O.2       11 UNK        -0.4999 
     69 C69        35.5350   27.4179    6.2948 C.3       12 UNK        -0.0954 
     70 S70        34.8335   26.6064    4.8223 S.3       12 UNK        -0.2268 
     71 C71        33.0589   26.8843    5.0888 C.3       12 UNK         0.0203 
     72 H72        23.6805   26.0257    0.9089 H         1 UNK         0.0888 
     73 H73        23.2116   24.5931   -0.0141 H         1 UNK         0.0888 
     74 H74        23.1046   24.5875    1.7467 H         1 UNK         0.0888 
     75 H75        24.6476   23.1455    2.4511 H         1 UNK         0.3017 
     76 H76        26.4978   22.1132    2.8937 H         1 UNK         0.0873 
     77 H77        28.1390   24.5803    2.0846 H         1 UNK         0.0745 
     78 H78        27.1598   24.5299    3.5070 H         1 UNK         0.0745 
     79 H79        31.2395   22.5601    3.1088 H         1 UNK         0.0705 
     80 H80        30.2502   22.9153    1.7230 H         1 UNK         0.0705 
     81 H81        31.8960   24.4482    4.7076 H         1 UNK         0.1334 
     82 H82        32.4684   28.2522    2.8194 H         1 UNK         0.1417 
     83 H83        30.2484   25.1776    0.8147 H         1 UNK         0.1562 
     84 H84        31.0158   27.1962   -0.4144 H         1 UNK         0.0748 
     85 H85        31.9512   28.4172    0.4049 H         1 UNK         0.0748 
     86 H86        28.1549   26.8573    1.1142 H         1 UNK         0.0940 
     87 H87        28.6033   27.0467   -0.5595 H         1 UNK         0.0940 
     88 H88        27.1606   29.2197   -0.5700 H         1 UNK         0.0703 
     89 H89        26.0443   26.4895   -0.5458 H         1 UNK         0.3081 
     90 H90        23.5117   26.5636   -1.5842 H         1 UNK         0.0719 
     91 H91        24.1434   27.7911   -4.3242 H         1 UNK         0.0809 
     92 H92        22.8089   26.6919   -3.9798 H         1 UNK         0.0809 
     93 H93        22.8381   28.2871   -3.2536 H         1 UNK         0.0809 
     94 H94        26.0187   25.9099   -2.9193 H         1 UNK         0.2990 
     95 H95        25.0692   22.4774   -3.4233 H         1 UNK         0.0690 
     96 H96        26.7489   22.9568   -5.1456 H         1 UNK         0.0788 
     97 H97        26.8561   24.6475   -4.6700 H         1 UNK         0.0788 
     98 H98        25.3967   24.0296   -5.4333 H         1 UNK         0.0788 
     99 H99        26.5669   23.9120   -1.5229 H         1 UNK         0.2993 
    100 H100       28.9546   21.3398   -1.0077 H         1 UNK         0.0949 
    101 H101       30.5989   23.1823   -0.7822 H         1 UNK         0.0767 
    102 H102       30.2695   22.8822   -2.4783 H         1 UNK         0.0767 
    103 H103       29.5480   24.2754   -1.6861 H         1 UNK         0.0767 
    104 H104       28.1317   23.8487    0.2715 H         1 UNK         0.3013 
    105 H105       27.3010   30.4479    1.3451 H         1 UNK         0.3121 
    106 H106       25.1887   30.0084    3.3899 H         1 UNK         0.0774 
    107 H107       25.5946   32.3849    3.9295 H         1 UNK         0.0815 
    108 H108       26.9451   32.4540    2.8061 H         1 UNK         0.0815 
    109 H109       25.3014   32.2217    2.2087 H         1 UNK         0.0815 
    110 H110       28.0083   28.6767    3.0950 H         1 UNK         0.2987 
    111 H111       29.7135   27.9177    4.2934 H         1 UNK         0.0949 
    112 H112       28.2328   28.8287    6.8163 H         1 UNK         0.0806 
    113 H113       28.0626   27.2589    6.0314 H         1 UNK         0.0806 
    114 H114       29.5974   27.7269    6.7458 H         1 UNK         0.0806 
    115 H115       30.4781   29.8077    2.9981 H         1 UNK         0.3010 
    116 H116       30.9901   32.3488    3.9202 H         1 UNK         0.0829 
    117 H117       31.0985   31.6273    1.5361 H         1 UNK         0.0813 
    118 H118       32.5840   32.4469    1.9771 H         1 UNK         0.0813 
    119 H119       32.5579   30.6931    1.8594 H         1 UNK         0.0813 
    120 H120       32.8447   33.5010    4.4798 H         1 UNK         0.3038 
    121 H121       34.2853   32.5592    6.6700 H         1 UNK         0.0769 
    122 H122       34.8048   35.0078    4.8970 H         1 UNK         0.0811 
    123 H123       35.4469   34.7726    6.5162 H         1 UNK         0.0811 
    124 H124       33.7170   34.9425    6.2854 H         1 UNK         0.0811 
    125 H125       35.0805   31.9258    3.4300 H         1 UNK         0.3204 
    126 H126       37.9016   31.8267    3.4118 H         1 UNK         0.0748 
    127 H127       37.5502   30.2222    1.5162 H         1 UNK         0.0771 
    128 H128       35.8477   30.0867    1.9343 H         1 UNK         0.0771 
    129 H129       36.5042   31.6234    1.3663 H         1 UNK         0.0771 
    130 H130       35.5891   29.6643    4.9731 H         1 UNK         0.2980 
    131 H131       37.5130   27.5479    5.4901 H         1 UNK         0.0545 
    132 H132       37.3387   30.7202    6.8880 H         1 UNK         0.3459 
    133 H133       38.1465   30.2780    8.3719 H         1 UNK         0.3459 
    134 H134       34.7852   28.0635    6.7559 H         1 UNK         0.0616 
    135 H135       35.7537   26.6332    7.0214 H         1 UNK         0.0616 
    136 H136       32.7429   26.3630    5.9937 H         1 UNK         0.0634 
    137 H137       32.8684   27.9433    5.2605 H         1 UNK         0.0634 
@<TRIPOS>BOND
     1    1    2 1    
     2    1   72 1    
     3    1   73 1    
     4    1   74 1    
     5    2    3 2    
     6    2    4 am   BACKBONE|DICT|INTERRES
     7    4    5 1    
     8    4   75 1    
     9    5    6 1    
    10    5   35 1    
    11    5   76 1    
    12    6    7 1    
    13    6   77 1    
    14    6   78 1    
    15    7    8 1    
    16    8    9 1    
    17    8   79 1    
    18    8   80 1    
    19    9   10 ar   
    20    9   14 ar   
    21   10   11 ar   
    22   10   81 1    
    23   11   12 ar   
    24   11   71 1    
    25   12   13 ar   
    26   12   82 1    
    27   13   14 ar   
    28   13   15 1    
    29   14   83 1    
    30   15   16 1    
    31   15   84 1    
    32   15   85 1    
    33   16   17 1    
    34   17   18 1    
    35   17   86 1    
    36   17   87 1    
    37   18   19 1    
    38   18   37 1    
    39   18   88 1    
    40   19   20 am   BACKBONE|DICT|INTERRES
    41   19   89 1    
    42   20   21 2    
    43   20   22 1    
    44   22   23 1    
    45   22   24 1    
    46   22   90 1    
    47   23   91 1    
    48   23   92 1    
    49   23   93 1    
    50   24   25 am   BACKBONE|DICT|INTERRES
    51   24   94 1    
    52   25   26 2    
    53   25   27 1    
    54   27   28 1    
    55   27   29 1    
    56   27   95 1    
    57   28   96 1    
    58   28   97 1    
    59   28   98 1    
    60   29   30 am   BACKBONE|DICT|INTERRES
    61   29   99 1    
    62   30   31 2    
    63   30   32 1    
    64   32   33 1    
    65   32   34 1    
    66   32  100 1    
    67   33  101 1    
    68   33  102 1    
    69   33  103 1    
    70   34   35 am   BACKBONE|DICT|INTERRES
    71   34  104 1    
    72   35   36 2    
    73   37   38 2    
    74   37   39 am   BACKBONE|DICT|INTERRES
    75   39   40 1    
    76   39  105 1    
    77   40   41 1    
    78   40   42 1    
    79   40  106 1    
    80   41  107 1    
    81   41  108 1    
    82   41  109 1    
    83   42   43 2    
    84   42   44 am   BACKBONE|DICT|INTERRES
    85   44   45 1    
    86   44  110 1    
    87   45   46 1    
    88   45   47 1    
    89   45  111 1    
    90   46  112 1    
    91   46  113 1    
    92   46  114 1    
    93   47   48 2    
    94   47   49 am   BACKBONE|DICT|INTERRES
    95   49   50 1    
    96   49  115 1    
    97   50   51 1    
    98   50   52 1    
    99   50  116 1    
   100   51  117 1    
   101   51  118 1    
   102   51  119 1    
   103   52   53 2    
   104   52   54 am   BACKBONE|DICT|INTERRES
   105   54   55 1    
   106   54  120 1    
   107   55   56 1    
   108   55   57 1    
   109   55  121 1    
   110   56  122 1    
   111   56  123 1    
   112   56  124 1    
   113   57   58 2    
   114   57   59 am   BACKBONE|DICT|INTERRES
   115   59   60 1    
   116   59  125 1    
   117   60   61 1    
   118   60   62 1    
   119   60  126 1    
   120   61  127 1    
   121   61  128 1    
   122   61  129 1    
   123   62   63 2    
   124   62   64 am   BACKBONE|DICT|INTERRES
   125   64   65 1    
   126   64  130 1    
   127   65   66 1    
   128   65   69 1    
   129   65  131 1    
   130   66   67 am   BACKBONE|DICT|INTERRES
   131   66   68 2    
   132   67  132 1    
   133   67  133 1    
   134   69   70 1    
   135   69  134 1    
   136   69  135 1    
   137   70   71 1    
   138   71  136 1    
   139   71  137 1    
@<TRIPOS>SUBSTRUCTURE
     1 UNK         1 GROUP             0       ****    0 ROOT    
