@<TRIPOS>MOLECULE
3R136
137   139    1
SMALL
USER_CHARGES


@<TRIPOS>ATOM
      1 CA         25.8177   21.7388    1.1658 C.3       0 UNK        -0.1979 
      2 C          26.8814   22.6647    1.7346 C.2       0 UNK         0.4864 
      3 O          26.6756   23.2375    2.8059 O.2       0 UNK        -0.5359 
      4 N          28.0092   22.8217    1.0233 N.am      1 UNK        -0.4318 
      5 CA         29.1732   23.6357    1.3998 C.3       1 UNK         0.0824 
      6 C6         30.0019   22.9726    2.5446 C.3       12 UNK        -0.0944 
      7 S7         31.1676   21.7408    1.8644 S.3       12 UNK        -0.2672 
      8 C8         32.7699   22.6226    1.9346 C.3       12 UNK         0.0333 
      9 C9         32.6629   24.0522    1.4201 C.ar      12 UNK        -0.0807 
     10 C10        32.6847   25.1229    2.3202 C.ar      12 UNK        -0.0894 
     11 C11        32.4630   26.4274    1.8741 C.ar      12 UNK        -0.0804 
     12 C12        32.2323   26.6586    0.5168 C.ar      12 UNK        -0.0824 
     13 C13        32.2227   25.6008   -0.3942 C.ar      12 UNK        -0.0762 
     14 C14        32.4641   24.2999    0.0584 C.ar      12 UNK        -0.0782 
     15 C15        31.8814   25.8584   -1.8518 C.3       12 UNK         0.0230 
     16 S16        30.2159   25.2237   -2.2120 S.3       12 UNK        -0.2608 
     17 C17        29.5642   26.4252   -3.4239 C.3       12 UNK        -0.0989 
     18 CA         28.3112   27.1994   -2.9322 C.3       5 UNK         0.0716 
     19 N          27.3455   26.3333   -2.2469 N.am      5 UNK        -0.4135 
     20 C          26.0756   26.6460   -1.9551 C.2       4 UNK         0.5031 
     21 O          25.5413   27.7129   -2.2595 O.2       4 UNK        -0.5229 
     22 CA         25.2576   25.5892   -1.2033 C.3       4 UNK         0.0329 
     23 CB         25.6752   24.1448   -1.5429 C.3       4 UNK        -0.2001 
     24 N          25.3743   25.8125    0.2394 N.am      4 UNK        -0.4303 
     25 C          24.3497   26.1224    1.0484 C.2       3 UNK         0.5044 
     26 O          23.1944   26.2775    0.6494 O.2       3 UNK        -0.5152 
     27 CA         24.6206   26.2623    2.5601 C.3       3 UNK         0.0319 
     28 CB         23.8355   25.1983    3.3473 C.3       3 UNK        -0.2001 
     29 N          26.0379   26.1467    2.9088 N.am      3 UNK        -0.4354 
     30 C          26.8723   27.1842    3.0736 C.2       2 UNK         0.4964 
     31 O          26.5206   28.3603    2.9937 O.2       2 UNK        -0.5047 
     32 CA         28.3543   26.8692    3.3652 C.3       2 UNK         0.0288 
     33 CB         28.6541   27.0164    4.8648 C.3       2 UNK        -0.2113 
     34 N          28.7860   25.5429    2.9181 N.am      2 UNK        -0.4145 
     35 C          28.7625   25.1042    1.6513 C.2       1 UNK         0.5006 
     36 O          28.3762   25.7938    0.7016 O.2       1 UNK        -0.5103 
     37 C          28.6519   28.4687   -2.1223 C.2       5 UNK         0.5055 
     38 O          28.8518   29.5193   -2.7336 O.2       5 UNK        -0.5220 
     39 N          28.6285   28.3655   -0.7821 N.am      6 UNK        -0.4450 
     40 CA         28.5015   29.4710    0.1785 C.3       6 UNK         0.0367 
     41 CB         27.0584   30.0169    0.1454 C.3       6 UNK        -0.1929 
     42 C          29.5555   30.5877    0.0421 C.2       6 UNK         0.5070 
     43 O          29.2138   31.7707    0.0939 O.2       6 UNK        -0.5237 
     44 N          30.8265   30.1935   -0.1166 N.am      7 UNK        -0.4739 
     45 CA         31.9757   31.1057   -0.2107 C.3       7 UNK         0.0276 
     46 CB         33.2268   30.3132   -0.6227 C.3       7 UNK        -0.1927 
     47 C          32.2382   31.9104    1.0792 C.2       7 UNK         0.5013 
     48 O          32.7823   33.0128    1.0047 O.2       7 UNK        -0.5193 
     49 N          31.8231   31.3582    2.2231 N.am      8 UNK        -0.4253 
     50 CA         31.7975   31.9731    3.5440 C.3       8 UNK         0.0242 
     51 CB         33.2047   31.9726    4.1740 C.3       8 UNK        -0.2000 
     52 C          30.8036   31.1746    4.3972 C.2       8 UNK         0.4948 
     53 O          30.3901   30.0830    3.9950 O.2       8 UNK        -0.5275 
     54 N          30.4551   31.7155    5.5715 N.am      9 UNK        -0.4246 
     55 CA         29.5875   31.0540    6.5538 C.3       9 UNK         0.0261 
     56 CB         29.1134   32.0867    7.5896 C.3       9 UNK        -0.1959 
     57 C          30.2585   29.8573    7.2559 C.2       9 UNK         0.5033 
     58 O          29.5537   28.9638    7.7264 O.2       9 UNK        -0.5390 
     59 N          31.5953   29.8614    7.3167 N.am      10 UNK        -0.4215 
     60 CA         32.4256   28.8080    7.8873 C.3       10 UNK         0.0240 
     61 CB         32.4997   28.9551    9.4206 C.3       10 UNK        -0.1982 
     62 C          33.8022   28.8954    7.2212 C.2       10 UNK         0.4970 
     63 O          34.6594   29.6467    7.6895 O.2       10 UNK        -0.4916 
     64 N          33.9680   28.1713    6.1096 N.am      11 UNK        -0.4279 
     65 CA         35.2341   28.0610    5.3687 C.3       11 UNK         0.1003 
     66 C          36.3132   27.2725    6.1609 C.2       11 UNK         0.5709 
     67 N          37.5831   27.6120    5.9857 N.am      11 UNK        -0.7358 
     68 O          36.0138   26.3351    6.8992 O.2       11 UNK        -0.4999 
     69 C69        35.0208   27.4376    3.9654 C.3       12 UNK        -0.0954 
     70 S70        33.9915   28.4934    2.8937 S.3       12 UNK        -0.2268 
     71 C71        32.4184   27.5855    2.8558 C.3       12 UNK         0.0203 
     72 H72        26.0816   21.3728    0.1738 H         1 UNK         0.0888 
     73 H73        25.6833   20.8788    1.8211 H         1 UNK         0.0888 
     74 H74        24.8651   22.2629    1.0939 H         1 UNK         0.0888 
     75 H75        28.1077   22.3250    0.1493 H         1 UNK         0.3017 
     76 H76        29.7975   23.6891    0.5077 H         1 UNK         0.0873 
     77 H77        30.5738   23.6913    3.1292 H         1 UNK         0.0745 
     78 H78        29.3517   22.4746    3.2656 H         1 UNK         0.0745 
     79 H79        33.1334   22.6109    2.9634 H         1 UNK         0.0705 
     80 H80        33.5055   22.0750    1.3439 H         1 UNK         0.0705 
     81 H81        32.8304   24.9350    3.3750 H         1 UNK         0.1334 
     82 H82        32.0417   27.6624    0.1731 H         1 UNK         0.1417 
     83 H83        32.4267   23.4733   -0.6385 H         1 UNK         0.1562 
     84 H84        32.6081   25.3678   -2.5009 H         1 UNK         0.0748 
     85 H85        31.9360   26.9257   -2.0709 H         1 UNK         0.0748 
     86 H86        29.2942   25.8535   -4.3133 H         1 UNK         0.0940 
     87 H87        30.3480   27.1083   -3.7570 H         1 UNK         0.0940 
     88 H88        27.8029   27.5621   -3.8286 H         1 UNK         0.0703 
     89 H89        27.7172   25.4518   -1.9228 H         1 UNK         0.3081 
     90 H90        24.2238   25.7112   -1.5331 H         1 UNK         0.0719 
     91 H91        26.6715   23.9024   -1.1753 H         1 UNK         0.0809 
     92 H92        24.9760   23.4297   -1.1109 H         1 UNK         0.0809 
     93 H93        25.6708   23.9784   -2.6212 H         1 UNK         0.0809 
     94 H94        26.3117   25.7783    0.6246 H         1 UNK         0.2990 
     95 H95        24.2459   27.2424    2.8622 H         1 UNK         0.0690 
     96 H96        23.9945   25.3020    4.4208 H         1 UNK         0.0788 
     97 H97        24.1267   24.1869    3.0617 H         1 UNK         0.0788 
     98 H98        22.7631   25.2902    3.1704 H         1 UNK         0.0788 
     99 H99        26.4009   25.2001    2.9914 H         1 UNK         0.2993 
    100 H100       28.9602   27.6037    2.8346 H         1 UNK         0.0949 
    101 H101       29.7176   26.8964    5.0724 H         1 UNK         0.0767 
    102 H102       28.3722   28.0087    5.2207 H         1 UNK         0.0767 
    103 H103       28.1064   26.2867    5.4624 H         1 UNK         0.0767 
    104 H104       29.0557   24.8929    3.6416 H         1 UNK         0.3013 
    105 H105       28.5180   27.4339   -0.3881 H         1 UNK         0.3121 
    106 H106       28.6601   29.0406    1.1650 H         1 UNK         0.0774 
    107 H107       26.8959   30.7461    0.9401 H         1 UNK         0.0815 
    108 H108       26.8339   30.5064   -0.8029 H         1 UNK         0.0815 
    109 H109       26.3298   29.2189    0.2899 H         1 UNK         0.0815 
    110 H110       31.0098   29.2063   -0.1982 H         1 UNK         0.2987 
    111 H111       31.7567   31.8284   -1.0000 H         1 UNK         0.0949 
    112 H112       33.5125   29.5821    0.1332 H         1 UNK         0.0806 
    113 H113       34.0786   30.9805   -0.7620 H         1 UNK         0.0806 
    114 H114       33.0740   29.7857   -1.5644 H         1 UNK         0.0806 
    115 H115       31.3501   30.4634    2.1953 H         1 UNK         0.3010 
    116 H116       31.4318   32.9975    3.4473 H         1 UNK         0.0829 
    117 H117       33.9356   32.4534    3.5238 H         1 UNK         0.0813 
    118 H118       33.2135   32.5162    5.1190 H         1 UNK         0.0813 
    119 H119       33.5567   30.9617    4.3786 H         1 UNK         0.0813 
    120 H120       30.8197   32.6237    5.8230 H         1 UNK         0.3038 
    121 H121       28.7097   30.6711    6.0281 H         1 UNK         0.0769 
    122 H122       29.9481   32.5179    8.1437 H         1 UNK         0.0811 
    123 H123       28.4424   31.6281    8.3175 H         1 UNK         0.0811 
    124 H124       28.5655   32.9017    7.1164 H         1 UNK         0.0811 
    125 H125       32.0958   30.6327    6.8979 H         1 UNK         0.3204 
    126 H126       31.9904   27.8337    7.6532 H         1 UNK         0.0748 
    127 H127       33.1675   28.2082    9.8517 H         1 UNK         0.0771 
    128 H128       32.8706   29.9372    9.7165 H         1 UNK         0.0771 
    129 H129       31.5206   28.8172    9.8798 H         1 UNK         0.0771 
    130 H130       33.2165   27.5803    5.7913 H         1 UNK         0.2980 
    131 H131       35.6130   29.0757    5.2283 H         1 UNK         0.0545 
    132 H132       37.8410   28.3702    5.3732 H         1 UNK         0.3459 
    133 H133       38.2987   27.1025    6.4801 H         1 UNK         0.3459 
    134 H134       35.9773   27.3090    3.4555 H         1 UNK         0.0616 
    135 H135       34.5871   26.4405    4.0464 H         1 UNK         0.0616 
    136 H136       31.6270   28.2723    2.5563 H         1 UNK         0.0634 
    137 H137       32.1562   27.2430    3.8574 H         1 UNK         0.0634 
@<TRIPOS>BOND
     1    1    2 1    
     2    1   72 1    
     3    1   73 1    
     4    1   74 1    
     5    2    3 2    
     6    2    4 am   BACKBONE|DICT|INTERRES
     7    4    5 1    
     8    4   75 1    
     9    5    6 1    
    10    5   35 1    
    11    5   76 1    
    12    6    7 1    
    13    6   77 1    
    14    6   78 1    
    15    7    8 1    
    16    8    9 1    
    17    8   79 1    
    18    8   80 1    
    19    9   10 ar   
    20    9   14 ar   
    21   10   11 ar   
    22   10   81 1    
    23   11   12 ar   
    24   11   71 1    
    25   12   13 ar   
    26   12   82 1    
    27   13   14 ar   
    28   13   15 1    
    29   14   83 1    
    30   15   16 1    
    31   15   84 1    
    32   15   85 1    
    33   16   17 1    
    34   17   18 1    
    35   17   86 1    
    36   17   87 1    
    37   18   19 1    
    38   18   37 1    
    39   18   88 1    
    40   19   20 am   BACKBONE|DICT|INTERRES
    41   19   89 1    
    42   20   21 2    
    43   20   22 1    
    44   22   23 1    
    45   22   24 1    
    46   22   90 1    
    47   23   91 1    
    48   23   92 1    
    49   23   93 1    
    50   24   25 am   BACKBONE|DICT|INTERRES
    51   24   94 1    
    52   25   26 2    
    53   25   27 1    
    54   27   28 1    
    55   27   29 1    
    56   27   95 1    
    57   28   96 1    
    58   28   97 1    
    59   28   98 1    
    60   29   30 am   BACKBONE|DICT|INTERRES
    61   29   99 1    
    62   30   31 2    
    63   30   32 1    
    64   32   33 1    
    65   32   34 1    
    66   32  100 1    
    67   33  101 1    
    68   33  102 1    
    69   33  103 1    
    70   34   35 am   BACKBONE|DICT|INTERRES
    71   34  104 1    
    72   35   36 2    
    73   37   38 2    
    74   37   39 am   BACKBONE|DICT|INTERRES
    75   39   40 1    
    76   39  105 1    
    77   40   41 1    
    78   40   42 1    
    79   40  106 1    
    80   41  107 1    
    81   41  108 1    
    82   41  109 1    
    83   42   43 2    
    84   42   44 am   BACKBONE|DICT|INTERRES
    85   44   45 1    
    86   44  110 1    
    87   45   46 1    
    88   45   47 1    
    89   45  111 1    
    90   46  112 1    
    91   46  113 1    
    92   46  114 1    
    93   47   48 2    
    94   47   49 am   BACKBONE|DICT|INTERRES
    95   49   50 1    
    96   49  115 1    
    97   50   51 1    
    98   50   52 1    
    99   50  116 1    
   100   51  117 1    
   101   51  118 1    
   102   51  119 1    
   103   52   53 2    
   104   52   54 am   BACKBONE|DICT|INTERRES
   105   54   55 1    
   106   54  120 1    
   107   55   56 1    
   108   55   57 1    
   109   55  121 1    
   110   56  122 1    
   111   56  123 1    
   112   56  124 1    
   113   57   58 2    
   114   57   59 am   BACKBONE|DICT|INTERRES
   115   59   60 1    
   116   59  125 1    
   117   60   61 1    
   118   60   62 1    
   119   60  126 1    
   120   61  127 1    
   121   61  128 1    
   122   61  129 1    
   123   62   63 2    
   124   62   64 am   BACKBONE|DICT|INTERRES
   125   64   65 1    
   126   64  130 1    
   127   65   66 1    
   128   65   69 1    
   129   65  131 1    
   130   66   67 am   BACKBONE|DICT|INTERRES
   131   66   68 2    
   132   67  132 1    
   133   67  133 1    
   134   69   70 1    
   135   69  134 1    
   136   69  135 1    
   137   70   71 1    
   138   71  136 1    
   139   71  137 1    
@<TRIPOS>SUBSTRUCTURE
     1 UNK         1 GROUP             0       ****    0 ROOT    
