@<TRIPOS>MOLECULE
3R136
137   139    1
SMALL
USER_CHARGES


@<TRIPOS>ATOM
      1 CA         26.1768   19.2530   -1.9429 C.3       0 UNK        -0.1979 
      2 C          27.1995   20.2303   -1.3822 C.2       0 UNK         0.4864 
      3 O          27.4087   21.2936   -1.9659 O.2       0 UNK        -0.5359 
      4 N          27.8390   19.8721   -0.2616 N.am      1 UNK        -0.4318 
      5 CA         28.8054   20.6941    0.4724 C.3       1 UNK         0.0824 
      6 C6         29.6381   19.8013    1.4331 C.3       12 UNK        -0.0944 
      7 S7         31.2703   20.4972    1.8523 S.3       12 UNK        -0.2672 
      8 C8         31.0928   20.9500    3.6106 C.3       12 UNK         0.0333 
      9 C9         31.1671   22.4568    3.8111 C.ar      12 UNK        -0.0807 
     10 C10        32.3867   23.1208    3.6528 C.ar      12 UNK        -0.0894 
     11 C11        32.4718   24.5042    3.8307 C.ar      12 UNK        -0.0804 
     12 C12        31.3257   25.2271    4.1748 C.ar      12 UNK        -0.0824 
     13 C13        30.0997   24.5756    4.3445 C.ar      12 UNK        -0.0762 
     14 C14        30.0299   23.1876    4.1674 C.ar      12 UNK        -0.0782 
     15 C15        28.8529   25.3748    4.7059 C.3       12 UNK         0.0230 
     16 S16        27.5416   25.0955    3.4792 S.3       12 UNK        -0.2608 
     17 C17        26.5119   26.5971    3.5399 C.3       12 UNK        -0.0989 
     18 CA         27.2326   27.9453    3.2539 C.3       5 UNK         0.0716 
     19 N          28.3123   27.8620    2.2617 N.am      5 UNK        -0.4135 
     20 C          29.2212   28.8326    2.0688 C.2       4 UNK         0.5031 
     21 O          29.2421   29.8811    2.7118 O.2       4 UNK        -0.5229 
     22 CA         30.2692   28.6389    0.9587 C.3       4 UNK         0.0329 
     23 CB         31.5442   28.0000    1.5318 C.3       4 UNK        -0.2001 
     24 N          29.7984   27.8472   -0.1766 N.am      4 UNK        -0.4303 
     25 C          28.7340   28.1266   -0.9438 C.2       3 UNK         0.5044 
     26 O          28.0433   29.1386   -0.8182 O.2       3 UNK        -0.5152 
     27 CA         28.3409   27.0585   -1.9840 C.3       3 UNK         0.0319 
     28 CB         28.9401   27.4002   -3.3569 C.3       3 UNK        -0.2001 
     29 N          28.7395   25.6956   -1.5983 N.am      3 UNK        -0.4354 
     30 C          28.3058   25.0697   -0.4944 C.2       2 UNK         0.4964 
     31 O          27.4739   25.5583    0.2748 O.2       2 UNK        -0.5047 
     32 CA         28.9673   23.7264   -0.1555 C.3       2 UNK         0.0288 
     33 CB         30.4183   23.9460    0.3139 C.3       2 UNK        -0.2113 
     34 N          28.1953   23.0977    0.9138 N.am      2 UNK        -0.4145 
     35 C          28.0440   21.8058    1.2335 C.2       1 UNK         0.5006 
     36 O          27.2760   21.4646    2.1346 O.2       1 UNK        -0.5103 
     37 C          26.1985   29.0156    2.8534 C.2       5 UNK         0.5055 
     38 O          25.7732   29.8013    3.7004 O.2       5 UNK        -0.5220 
     39 N          25.8311   29.0310    1.5626 N.am      6 UNK        -0.4450 
     40 CA         24.8989   29.9918    0.9690 C.3       6 UNK         0.0367 
     41 CB         24.4544   29.4901   -0.4144 C.3       6 UNK        -0.1929 
     42 C          25.5012   31.4017    0.8695 C.2       6 UNK         0.5070 
     43 O          24.7942   32.3815    1.1047 O.2       6 UNK        -0.5237 
     44 N          26.8007   31.4774    0.5508 N.am      7 UNK        -0.4739 
     45 CA         27.5776   32.7198    0.5177 C.3       7 UNK         0.0276 
     46 CB         28.8914   32.4622   -0.2380 C.3       7 UNK        -0.1927 
     47 C          27.8759   33.3007    1.9139 C.2       7 UNK         0.5013 
     48 O          28.2203   34.4798    2.0025 O.2       7 UNK        -0.5193 
     49 N          27.7662   32.4645    2.9589 N.am      8 UNK        -0.4253 
     50 CA         28.1523   32.7098    4.3541 C.3       8 UNK         0.0242 
     51 CB         27.2573   33.7895    4.9989 C.3       8 UNK        -0.2000 
     52 C          29.6601   33.0049    4.4826 C.2       8 UNK         0.4948 
     53 O          30.0550   33.9479    5.1720 O.2       8 UNK        -0.5275 
     54 N          30.4680   32.2006    3.7830 N.am      9 UNK        -0.4246 
     55 CA         31.9183   32.3286    3.6837 C.3       9 UNK         0.0261 
     56 CB         32.3154   32.1743    2.2054 C.3       9 UNK        -0.1959 
     57 C          32.6120   31.2540    4.5302 C.2       9 UNK         0.5033 
     58 O          32.0390   30.1893    4.7765 O.2       9 UNK        -0.5390 
     59 N          33.8584   31.5402    4.9233 N.am      10 UNK        -0.4215 
     60 CA         34.7666   30.5788    5.5495 C.3       10 UNK         0.0240 
     61 CB         35.8801   31.3455    6.2829 C.3       10 UNK        -0.1982 
     62 C          35.3661   29.6339    4.4946 C.2       10 UNK         0.4970 
     63 O          35.4726   30.0088    3.3239 O.2       10 UNK        -0.4916 
     64 N          35.7749   28.4398    4.9358 N.am      11 UNK        -0.4279 
     65 CA         36.3772   27.4021    4.0814 C.3       11 UNK         0.1003 
     66 C          37.8347   27.6967    3.6179 C.2       11 UNK         0.5709 
     67 N          38.5252   28.6868    4.1715 N.am      11 UNK        -0.7358 
     68 O          38.3458   27.0150    2.7325 O.2       11 UNK        -0.4999 
     69 C69        36.2789   25.9919    4.7221 C.3       12 UNK        -0.0954 
     70 S70        34.5952   25.5326    5.2514 S.3       12 UNK        -0.2268 
     71 C71        33.8027   25.2143    3.6472 C.3       12 UNK         0.0203 
     72 H72        26.0991   18.3503   -1.3371 H         1 UNK         0.0888 
     73 H73        25.1935   19.7209   -1.9818 H         1 UNK         0.0888 
     74 H74        26.4548   18.9589   -2.9547 H         1 UNK         0.0888 
     75 H75        27.5937   18.9980    0.1811 H         1 UNK         0.3017 
     76 H76        29.4898   21.1239   -0.2585 H         1 UNK         0.0873 
     77 H77        29.0801   19.5361    2.3327 H         1 UNK         0.0745 
     78 H78        29.8520   18.8483    0.9459 H         1 UNK         0.0745 
     79 H79        30.1656   20.5521    4.0245 H         1 UNK         0.0705 
     80 H80        31.8985   20.4768    4.1738 H         1 UNK         0.0705 
     81 H81        33.2697   22.5570    3.3839 H         1 UNK         0.1334 
     82 H82        31.3938   26.2978    4.3133 H         1 UNK         0.1417 
     83 H83        29.0819   22.6808    4.2903 H         1 UNK         0.1562 
     84 H84        29.0874   26.4378    4.7648 H         1 UNK         0.0748 
     85 H85        28.4970   25.0761    5.6926 H         1 UNK         0.0748 
     86 H86        26.0179   26.6389    4.5125 H         1 UNK         0.0940 
     87 H87        25.7139   26.4247    2.8140 H         1 UNK         0.0940 
     88 H88        27.6877   28.2772    4.1897 H         1 UNK         0.0703 
     89 H89        28.3275   27.0287    1.6858 H         1 UNK         0.3081 
     90 H90        30.5266   29.6282    0.5783 H         1 UNK         0.0719 
     91 H91        31.3711   26.9714    1.8484 H         1 UNK         0.0809 
     92 H92        32.3501   27.9939    0.7977 H         1 UNK         0.0809 
     93 H93        31.9055   28.5534    2.4006 H         1 UNK         0.0809 
     94 H94        30.3015   26.9945   -0.3695 H         1 UNK         0.2990 
     95 H95        27.2524   27.0753   -2.0705 H         1 UNK         0.0690 
     96 H96        28.5999   26.7034   -4.1233 H         1 UNK         0.0788 
     97 H97        30.0305   27.3774   -3.3403 H         1 UNK         0.0788 
     98 H98        28.6397   28.3998   -3.6747 H         1 UNK         0.0788 
     99 H99        29.4196   25.2371   -2.1882 H         1 UNK         0.2993 
    100 H100       28.9475   23.1172   -1.0585 H         1 UNK         0.0949 
    101 H101       30.9201   23.0041    0.5237 H         1 UNK         0.0767 
    102 H102       31.0135   24.4561   -0.4440 H         1 UNK         0.0767 
    103 H103       30.4579   24.5471    1.2235 H         1 UNK         0.0767 
    104 H104       27.6500   23.7772    1.4329 H         1 UNK         0.3013 
    105 H105       26.2613   28.3687    0.9319 H         1 UNK         0.3121 
    106 H106       24.0169   30.0509    1.6107 H         1 UNK         0.0774 
    107 H107       25.2956   29.3979   -1.1026 H         1 UNK         0.0815 
    108 H108       23.7389   30.1787   -0.8659 H         1 UNK         0.0815 
    109 H109       23.9677   28.5171   -0.3465 H         1 UNK         0.0815 
    110 H110       27.2877   30.6238    0.2919 H         1 UNK         0.2987 
    111 H111       27.0035   33.4682   -0.0330 H         1 UNK         0.0949 
    112 H112       29.5219   31.7466    0.2894 H         1 UNK         0.0806 
    113 H113       28.7065   32.0732   -1.2396 H         1 UNK         0.0806 
    114 H114       29.4663   33.3827   -0.3474 H         1 UNK         0.0806 
    115 H115       27.5142   31.5073    2.7496 H         1 UNK         0.3010 
    116 H116       27.9775   31.7734    4.8865 H         1 UNK         0.0829 
    117 H117       27.4152   34.7706    4.5502 H         1 UNK         0.0813 
    118 H118       26.2012   33.5395    4.8972 H         1 UNK         0.0813 
    119 H119       27.4674   33.8830    6.0649 H         1 UNK         0.0813 
    120 H120       30.0607   31.3786    3.3377 H         1 UNK         0.3038 
    121 H121       32.2357   33.3139    4.0319 H         1 UNK         0.0769 
    122 H122       32.0419   31.1931    1.8162 H         1 UNK         0.0811 
    123 H123       33.3921   32.2875    2.0723 H         1 UNK         0.0811 
    124 H124       31.8301   32.9277    1.5844 H         1 UNK         0.0811 
    125 H125       34.2669   32.4173    4.6341 H         1 UNK         0.3204 
    126 H126       34.2080   29.9864    6.2779 H         1 UNK         0.0748 
    127 H127       36.5535   30.6611    6.8005 H         1 UNK         0.0771 
    128 H128       36.4838   31.9396    5.5952 H         1 UNK         0.0771 
    129 H129       35.4681   32.0192    7.0347 H         1 UNK         0.0771 
    130 H130       35.6655   28.2023    5.9106 H         1 UNK         0.2980 
    131 H131       35.7900   27.3737    3.1618 H         1 UNK         0.0545 
    132 H132       39.4658   28.8675    3.8579 H         1 UNK         0.3459 
    133 H133       38.1164   29.2535    4.8962 H         1 UNK         0.3459 
    134 H134       36.6393   25.2275    4.0309 H         1 UNK         0.0616 
    135 H135       36.9259   25.9334    5.5992 H         1 UNK         0.0616 
    136 H136       34.4671   24.6159    3.0219 H         1 UNK         0.0634 
    137 H137       33.6497   26.1594    3.1242 H         1 UNK         0.0634 
@<TRIPOS>BOND
     1    1    2 1    
     2    1   72 1    
     3    1   73 1    
     4    1   74 1    
     5    2    3 2    
     6    2    4 am   BACKBONE|DICT|INTERRES
     7    4    5 1    
     8    4   75 1    
     9    5    6 1    
    10    5   35 1    
    11    5   76 1    
    12    6    7 1    
    13    6   77 1    
    14    6   78 1    
    15    7    8 1    
    16    8    9 1    
    17    8   79 1    
    18    8   80 1    
    19    9   10 ar   
    20    9   14 ar   
    21   10   11 ar   
    22   10   81 1    
    23   11   12 ar   
    24   11   71 1    
    25   12   13 ar   
    26   12   82 1    
    27   13   14 ar   
    28   13   15 1    
    29   14   83 1    
    30   15   16 1    
    31   15   84 1    
    32   15   85 1    
    33   16   17 1    
    34   17   18 1    
    35   17   86 1    
    36   17   87 1    
    37   18   19 1    
    38   18   37 1    
    39   18   88 1    
    40   19   20 am   BACKBONE|DICT|INTERRES
    41   19   89 1    
    42   20   21 2    
    43   20   22 1    
    44   22   23 1    
    45   22   24 1    
    46   22   90 1    
    47   23   91 1    
    48   23   92 1    
    49   23   93 1    
    50   24   25 am   BACKBONE|DICT|INTERRES
    51   24   94 1    
    52   25   26 2    
    53   25   27 1    
    54   27   28 1    
    55   27   29 1    
    56   27   95 1    
    57   28   96 1    
    58   28   97 1    
    59   28   98 1    
    60   29   30 am   BACKBONE|DICT|INTERRES
    61   29   99 1    
    62   30   31 2    
    63   30   32 1    
    64   32   33 1    
    65   32   34 1    
    66   32  100 1    
    67   33  101 1    
    68   33  102 1    
    69   33  103 1    
    70   34   35 am   BACKBONE|DICT|INTERRES
    71   34  104 1    
    72   35   36 2    
    73   37   38 2    
    74   37   39 am   BACKBONE|DICT|INTERRES
    75   39   40 1    
    76   39  105 1    
    77   40   41 1    
    78   40   42 1    
    79   40  106 1    
    80   41  107 1    
    81   41  108 1    
    82   41  109 1    
    83   42   43 2    
    84   42   44 am   BACKBONE|DICT|INTERRES
    85   44   45 1    
    86   44  110 1    
    87   45   46 1    
    88   45   47 1    
    89   45  111 1    
    90   46  112 1    
    91   46  113 1    
    92   46  114 1    
    93   47   48 2    
    94   47   49 am   BACKBONE|DICT|INTERRES
    95   49   50 1    
    96   49  115 1    
    97   50   51 1    
    98   50   52 1    
    99   50  116 1    
   100   51  117 1    
   101   51  118 1    
   102   51  119 1    
   103   52   53 2    
   104   52   54 am   BACKBONE|DICT|INTERRES
   105   54   55 1    
   106   54  120 1    
   107   55   56 1    
   108   55   57 1    
   109   55  121 1    
   110   56  122 1    
   111   56  123 1    
   112   56  124 1    
   113   57   58 2    
   114   57   59 am   BACKBONE|DICT|INTERRES
   115   59   60 1    
   116   59  125 1    
   117   60   61 1    
   118   60   62 1    
   119   60  126 1    
   120   61  127 1    
   121   61  128 1    
   122   61  129 1    
   123   62   63 2    
   124   62   64 am   BACKBONE|DICT|INTERRES
   125   64   65 1    
   126   64  130 1    
   127   65   66 1    
   128   65   69 1    
   129   65  131 1    
   130   66   67 am   BACKBONE|DICT|INTERRES
   131   66   68 2    
   132   67  132 1    
   133   67  133 1    
   134   69   70 1    
   135   69  134 1    
   136   69  135 1    
   137   70   71 1    
   138   71  136 1    
   139   71  137 1    
@<TRIPOS>SUBSTRUCTURE
     1 UNK         1 GROUP             0       ****    0 ROOT    
