@<TRIPOS>MOLECULE
3R136
137   139    1
SMALL
USER_CHARGES


@<TRIPOS>ATOM
      1 CA         27.8014   19.3680    0.3097 C.3       0 UNK        -0.1979 
      2 C          28.1843   20.8327    0.1592 C.2       0 UNK         0.4864 
      3 O          27.8359   21.4568   -0.8438 O.2       0 UNK        -0.5359 
      4 N          28.8915   21.3898    1.1523 N.am      1 UNK        -0.4318 
      5 CA         29.3791   22.7756    1.1621 C.3       1 UNK         0.0824 
      6 C6         30.4076   23.0279    2.2894 C.3       12 UNK        -0.0944 
      7 S7         31.8754   21.9538    2.2295 S.3       12 UNK        -0.2672 
      8 C8         32.5371   22.2144    3.9087 C.3       12 UNK         0.0333 
      9 C9         33.0194   23.6452    4.1153 C.ar      12 UNK        -0.0807 
     10 C10        34.3336   23.9935    3.7945 C.ar      12 UNK        -0.0894 
     11 C11        34.7859   25.3023    3.9817 C.ar      12 UNK        -0.0804 
     12 C12        33.9062   26.2672    4.4826 C.ar      12 UNK        -0.0824 
     13 C13        32.5798   25.9450    4.7860 C.ar      12 UNK        -0.0762 
     14 C14        32.1533   24.6195    4.6247 C.ar      12 UNK        -0.0782 
     15 C15        31.6672   27.0748    5.2709 C.3       12 UNK         0.0230 
     16 S16        29.9184   26.6505    5.5920 S.3       12 UNK        -0.2608 
     17 C17        29.2214   26.5059    3.9085 C.3       12 UNK        -0.0989 
     18 CA         28.8228   27.8434    3.2272 C.3       5 UNK         0.0716 
     19 N          28.6676   27.6436    1.7796 N.am      5 UNK        -0.4135 
     20 C          28.5987   28.5867    0.8283 C.2       4 UNK         0.5031 
     21 O          28.5122   29.7912    1.0555 O.2       4 UNK        -0.5229 
     22 CA         28.5625   28.0934   -0.6241 C.3       4 UNK         0.0329 
     23 CB         29.9350   27.5475   -1.0476 C.3       4 UNK        -0.2001 
     24 N          27.5560   27.0460   -0.7844 N.am      4 UNK        -0.4303 
     25 C          26.3146   27.2361   -1.2499 C.2       3 UNK         0.5044 
     26 O          25.8958   28.3131   -1.6753 O.2       3 UNK        -0.5152 
     27 CA         25.3691   26.0185   -1.2309 C.3       3 UNK         0.0319 
     28 CB         25.4329   25.2676   -2.5705 C.3       3 UNK        -0.2001 
     29 N          25.6397   25.0788   -0.1379 N.am      3 UNK        -0.4354 
     30 C          25.5198   25.3728    1.1647 C.2       2 UNK         0.4964 
     31 O          25.1223   26.4582    1.5872 O.2       2 UNK        -0.5047 
     32 CA         25.9508   24.2941    2.1744 C.3       2 UNK         0.0288 
     33 CB         24.7504   23.4126    2.5548 C.3       2 UNK        -0.2113 
     34 N          27.0687   23.4321    1.7635 N.am      2 UNK        -0.4145 
     35 C          28.2610   23.8304    1.2910 C.2       1 UNK         0.5006 
     36 O          28.5240   24.9978    1.0020 O.2       1 UNK        -0.5103 
     37 C          27.6343   28.5704    3.9082 C.2       5 UNK         0.5055 
     38 O          27.7419   28.9449    5.0762 O.2       5 UNK        -0.5220 
     39 N          26.5495   28.8451    3.1667 N.am      6 UNK        -0.4450 
     40 CA         25.5382   29.8516    3.5119 C.3       6 UNK         0.0367 
     41 CB         24.4432   29.8621    2.4338 C.3       6 UNK        -0.1929 
     42 C          26.1388   31.2643    3.6899 C.2       6 UNK         0.5070 
     43 O          25.6603   32.0227    4.5334 O.2       6 UNK        -0.5237 
     44 N          27.2055   31.5659    2.9371 N.am      7 UNK        -0.4739 
     45 CA         28.1300   32.6676    3.1764 C.3       7 UNK         0.0276 
     46 CB         28.2905   33.4804    1.8790 C.3       7 UNK        -0.1927 
     47 C          29.4467   32.0147    3.6189 C.2       7 UNK         0.5013 
     48 O          30.2794   31.6916    2.7731 O.2       7 UNK        -0.5193 
     49 N          29.5792   31.7742    4.9313 N.am      8 UNK        -0.4253 
     50 CA         30.5730   30.9022    5.5816 C.3       8 UNK         0.0242 
     51 CB         30.3683   30.9699    7.1040 C.3       8 UNK        -0.2000 
     52 C          32.0606   31.1138    5.2310 C.2       8 UNK         0.4948 
     53 O          32.8641   30.2178    5.4914 O.2       8 UNK        -0.5275 
     54 N          32.4123   32.2672    4.6493 N.am      9 UNK        -0.4246 
     55 CA         33.7331   32.5382    4.0797 C.3       9 UNK         0.0261 
     56 CB         33.8558   34.0429    3.7890 C.3       9 UNK        -0.1959 
     57 C          34.0343   31.7181    2.8076 C.2       9 UNK         0.5033 
     58 O          35.2100   31.4876    2.5196 O.2       9 UNK        -0.5390 
     59 N          32.9964   31.3081    2.0640 N.am      10 UNK        -0.4215 
     60 CA         33.1125   30.4904    0.8583 C.3       10 UNK         0.0240 
     61 CB         32.0064   30.8910   -0.1318 C.3       10 UNK        -0.1982 
     62 C          33.0037   29.0034    1.2228 C.2       10 UNK         0.4970 
     63 O          32.0894   28.6209    1.9546 O.2       10 UNK        -0.4916 
     64 N          33.9237   28.1977    0.6847 N.am      11 UNK        -0.4279 
     65 CA         33.9678   26.7395    0.8610 C.3       11 UNK         0.1003 
     66 C          33.2107   26.0057   -0.2739 C.2       11 UNK         0.5709 
     67 N          32.6826   24.8204   -0.0012 N.am      11 UNK        -0.7358 
     68 O          33.1331   26.4776   -1.4069 O.2       11 UNK        -0.4999 
     69 C69        35.4276   26.2240    0.9697 C.3       12 UNK        -0.0954 
     70 S70        36.3284   26.9776    2.3670 S.3       12 UNK        -0.2268 
     71 C71        36.2228   25.6727    3.6350 C.3       12 UNK         0.0203 
     72 H72        28.1707   18.9436    1.2432 H         1 UNK         0.0888 
     73 H73        26.7173   19.2596    0.2929 H         1 UNK         0.0888 
     74 H74        28.2151   18.7864   -0.5136 H         1 UNK         0.0888 
     75 H75        29.1721   20.8248    1.9418 H         1 UNK         0.3017 
     76 H76        29.8725   22.9583    0.2050 H         1 UNK         0.0873 
     77 H77        30.7705   24.0558    2.2374 H         1 UNK         0.0745 
     78 H78        29.9321   22.9135    3.2658 H         1 UNK         0.0745 
     79 H79        33.3614   21.5188    4.0729 H         1 UNK         0.0705 
     80 H80        31.7754   21.9585    4.6469 H         1 UNK         0.0705 
     81 H81        35.0037   23.2422    3.3988 H         1 UNK         0.1334 
     82 H82        34.2504   27.2854    4.6095 H         1 UNK         0.1417 
     83 H83        31.1411   24.3376    4.8739 H         1 UNK         0.1562 
     84 H84        31.6982   27.8864    4.5433 H         1 UNK         0.0748 
     85 H85        32.0852   27.4792    6.1939 H         1 UNK         0.0748 
     86 H86        28.3646   25.8320    3.9492 H         1 UNK         0.0940 
     87 H87        29.9678   25.9998    3.2959 H         1 UNK         0.0940 
     88 H88        29.6698   28.5244    3.3295 H         1 UNK         0.0703 
     89 H89        28.6843   26.6719    1.4739 H         1 UNK         0.3081 
     90 H90        28.3272   28.9459   -1.2650 H         1 UNK         0.0719 
     91 H91        30.2225   26.6714   -0.4654 H         1 UNK         0.0809 
     92 H92        29.9413   27.2634   -2.0999 H         1 UNK         0.0809 
     93 H93        30.7144   28.2966   -0.9102 H         1 UNK         0.0809 
     94 H94        27.7943   26.1344   -0.4074 H         1 UNK         0.2990 
     95 H95        24.3530   26.3966   -1.0988 H         1 UNK         0.0690 
     96 H96        26.4207   24.8394   -2.7468 H         1 UNK         0.0788 
     97 H97        25.2138   25.9368   -3.4038 H         1 UNK         0.0788 
     98 H98        24.7038   24.4580   -2.6072 H         1 UNK         0.0788 
     99 H99        25.9815   24.1630   -0.3933 H         1 UNK         0.2993 
    100 H100       26.2760   24.8230    3.0721 H         1 UNK         0.0949 
    101 H101       24.4090   22.8110    1.7113 H         1 UNK         0.0767 
    102 H102       24.9968   22.7357    3.3732 H         1 UNK         0.0767 
    103 H103       23.9065   24.0206    2.8848 H         1 UNK         0.0767 
    104 H104       26.9595   22.4472    1.9555 H         1 UNK         0.3013 
    105 H105       26.5002   28.4593    2.2341 H         1 UNK         0.3121 
    106 H106       25.0878   29.5594    4.4626 H         1 UNK         0.0774 
    107 H107       23.6720   30.5973    2.6679 H         1 UNK         0.0815 
    108 H108       24.8463   30.1116    1.4513 H         1 UNK         0.0815 
    109 H109       23.9523   28.8916    2.3580 H         1 UNK         0.0815 
    110 H110       27.5534   30.8660    2.2825 H         1 UNK         0.2987 
    111 H111       27.7724   33.3312    3.9668 H         1 UNK         0.0949 
    112 H112       28.6269   32.8578    1.0482 H         1 UNK         0.0806 
    113 H113       27.3486   33.9442    1.5862 H         1 UNK         0.0806 
    114 H114       29.0222   34.2789    2.0073 H         1 UNK         0.0806 
    115 H115       28.8250   32.0792    5.5302 H         1 UNK         0.3010 
    116 H116       30.3368   29.8859    5.2633 H         1 UNK         0.0829 
    117 H117       31.0624   30.3080    7.6242 H         1 UNK         0.0813 
    118 H118       30.5281   31.9783    7.4874 H         1 UNK         0.0813 
    119 H119       29.3617   30.6562    7.3820 H         1 UNK         0.0813 
    120 H120       31.6851   32.9412    4.4596 H         1 UNK         0.3038 
    121 H121       34.4846   32.2722    4.8262 H         1 UNK         0.0769 
    122 H122       34.8421   34.2832    3.3895 H         1 UNK         0.0811 
    123 H123       33.7219   34.6352    4.6944 H         1 UNK         0.0811 
    124 H124       33.1184   34.3741    3.0566 H         1 UNK         0.0811 
    125 H125       32.0450   31.4746    2.3935 H         1 UNK         0.3204 
    126 H126       34.0762   30.6779    0.3797 H         1 UNK         0.0748 
    127 H127       32.0923   30.3289   -1.0623 H         1 UNK         0.0771 
    128 H128       31.0125   30.7027    0.2768 H         1 UNK         0.0771 
    129 H129       32.0660   31.9495   -0.3850 H         1 UNK         0.0771 
    130 H130       34.6165   28.5830    0.0607 H         1 UNK         0.2980 
    131 H131       33.4532   26.4878    1.7885 H         1 UNK         0.0545 
    132 H132       32.7705   24.4049    0.9131 H         1 UNK         0.3459 
    133 H133       32.2126   24.3197   -0.7376 H         1 UNK         0.3459 
    134 H134       35.4483   25.1382    1.0809 H         1 UNK         0.0616 
    135 H135       35.9796   26.4446    0.0543 H         1 UNK         0.0616 
    136 H136       36.7269   26.0192    4.5381 H         1 UNK         0.0634 
    137 H137       36.7786   24.8003    3.2876 H         1 UNK         0.0634 
@<TRIPOS>BOND
     1    1    2 1    
     2    1   72 1    
     3    1   73 1    
     4    1   74 1    
     5    2    3 2    
     6    2    4 am   BACKBONE|DICT|INTERRES
     7    4    5 1    
     8    4   75 1    
     9    5    6 1    
    10    5   35 1    
    11    5   76 1    
    12    6    7 1    
    13    6   77 1    
    14    6   78 1    
    15    7    8 1    
    16    8    9 1    
    17    8   79 1    
    18    8   80 1    
    19    9   10 ar   
    20    9   14 ar   
    21   10   11 ar   
    22   10   81 1    
    23   11   12 ar   
    24   11   71 1    
    25   12   13 ar   
    26   12   82 1    
    27   13   14 ar   
    28   13   15 1    
    29   14   83 1    
    30   15   16 1    
    31   15   84 1    
    32   15   85 1    
    33   16   17 1    
    34   17   18 1    
    35   17   86 1    
    36   17   87 1    
    37   18   19 1    
    38   18   37 1    
    39   18   88 1    
    40   19   20 am   BACKBONE|DICT|INTERRES
    41   19   89 1    
    42   20   21 2    
    43   20   22 1    
    44   22   23 1    
    45   22   24 1    
    46   22   90 1    
    47   23   91 1    
    48   23   92 1    
    49   23   93 1    
    50   24   25 am   BACKBONE|DICT|INTERRES
    51   24   94 1    
    52   25   26 2    
    53   25   27 1    
    54   27   28 1    
    55   27   29 1    
    56   27   95 1    
    57   28   96 1    
    58   28   97 1    
    59   28   98 1    
    60   29   30 am   BACKBONE|DICT|INTERRES
    61   29   99 1    
    62   30   31 2    
    63   30   32 1    
    64   32   33 1    
    65   32   34 1    
    66   32  100 1    
    67   33  101 1    
    68   33  102 1    
    69   33  103 1    
    70   34   35 am   BACKBONE|DICT|INTERRES
    71   34  104 1    
    72   35   36 2    
    73   37   38 2    
    74   37   39 am   BACKBONE|DICT|INTERRES
    75   39   40 1    
    76   39  105 1    
    77   40   41 1    
    78   40   42 1    
    79   40  106 1    
    80   41  107 1    
    81   41  108 1    
    82   41  109 1    
    83   42   43 2    
    84   42   44 am   BACKBONE|DICT|INTERRES
    85   44   45 1    
    86   44  110 1    
    87   45   46 1    
    88   45   47 1    
    89   45  111 1    
    90   46  112 1    
    91   46  113 1    
    92   46  114 1    
    93   47   48 2    
    94   47   49 am   BACKBONE|DICT|INTERRES
    95   49   50 1    
    96   49  115 1    
    97   50   51 1    
    98   50   52 1    
    99   50  116 1    
   100   51  117 1    
   101   51  118 1    
   102   51  119 1    
   103   52   53 2    
   104   52   54 am   BACKBONE|DICT|INTERRES
   105   54   55 1    
   106   54  120 1    
   107   55   56 1    
   108   55   57 1    
   109   55  121 1    
   110   56  122 1    
   111   56  123 1    
   112   56  124 1    
   113   57   58 2    
   114   57   59 am   BACKBONE|DICT|INTERRES
   115   59   60 1    
   116   59  125 1    
   117   60   61 1    
   118   60   62 1    
   119   60  126 1    
   120   61  127 1    
   121   61  128 1    
   122   61  129 1    
   123   62   63 2    
   124   62   64 am   BACKBONE|DICT|INTERRES
   125   64   65 1    
   126   64  130 1    
   127   65   66 1    
   128   65   69 1    
   129   65  131 1    
   130   66   67 am   BACKBONE|DICT|INTERRES
   131   66   68 2    
   132   67  132 1    
   133   67  133 1    
   134   69   70 1    
   135   69  134 1    
   136   69  135 1    
   137   70   71 1    
   138   71  136 1    
   139   71  137 1    
@<TRIPOS>SUBSTRUCTURE
     1 UNK         1 GROUP             0       ****    0 ROOT    
