@<TRIPOS>MOLECULE
3R136
137   139    1
SMALL
USER_CHARGES


@<TRIPOS>ATOM
      1 CA         25.4724   20.3165    3.6305 C.3       0 UNK        -0.1979 
      2 C          26.8131   20.7703    3.0732 C.2       0 UNK         0.4864 
      3 O          27.0276   21.9725    2.9087 O.2       0 UNK        -0.5359 
      4 N          27.7122   19.8186    2.7770 N.am      1 UNK        -0.4318 
      5 CA         29.0413   20.0380    2.1931 C.3       1 UNK         0.0824 
      6 C6         29.9952   20.7771    3.1755 C.3       12 UNK        -0.0944 
      7 S7         31.7449   20.7086    2.6626 S.3       12 UNK        -0.2672 
      8 C8         32.5026   21.8938    3.8157 C.3       12 UNK         0.0333 
      9 C9         32.2013   23.3428    3.4528 C.ar      12 UNK        -0.0807 
     10 C10        32.9976   24.0154    2.5186 C.ar      12 UNK        -0.0894 
     11 C11        32.7830   25.3711    2.2463 C.ar      12 UNK        -0.0804 
     12 C12        31.7590   26.0492    2.9130 C.ar      12 UNK        -0.0824 
     13 C13        30.9287   25.3784    3.8122 C.ar      12 UNK        -0.0762 
     14 C14        31.1599   24.0279    4.0879 C.ar      12 UNK        -0.0782 
     15 C15        29.7909   26.1242    4.4876 C.3       12 UNK         0.0230 
     16 S16        28.3218   26.1677    3.4096 S.3       12 UNK        -0.2608 
     17 C17        27.9206   27.9496    3.3560 C.3       12 UNK        -0.0989 
     18 CA         28.1639   28.5722    1.9587 C.3       5 UNK         0.0716 
     19 N          27.3240   27.9467    0.9385 N.am      5 UNK        -0.4135 
     20 C          27.4629   28.0898   -0.3832 C.2       4 UNK         0.5031 
     21 O          28.3706   28.7386   -0.9060 O.2       4 UNK        -0.5229 
     22 CA         26.4180   27.3708   -1.2619 C.3       4 UNK         0.0329 
     23 CB         26.7254   27.4936   -2.7661 C.3       4 UNK        -0.2001 
     24 N          26.2968   25.9509   -0.9239 N.am      4 UNK        -0.4303 
     25 C          25.6473   25.4321    0.1244 C.2       3 UNK         0.5044 
     26 O          25.0288   26.1170    0.9402 O.2       3 UNK        -0.5152 
     27 CA         25.7287   23.9080    0.3261 C.3       3 UNK         0.0319 
     28 CB         24.7573   23.1622   -0.6087 C.3       3 UNK        -0.2001 
     29 N          27.0899   23.3571    0.2479 N.am      3 UNK        -0.4354 
     30 C          27.9203   23.2970   -0.8071 C.2       2 UNK         0.4964 
     31 O          27.6303   23.7080   -1.9315 O.2       2 UNK        -0.5047 
     32 CA         29.3268   22.7147   -0.5802 C.3       2 UNK         0.0288 
     33 CB         30.3612   23.8466   -0.5024 C.3       2 UNK        -0.2113 
     34 N          29.4398   21.9017    0.6283 N.am      2 UNK        -0.4145 
     35 C          28.8999   20.6882    0.7971 C.2       1 UNK         0.5006 
     36 O          28.2848   20.0859   -0.0861 O.2       1 UNK        -0.5103 
     37 C          27.9069   30.0906    2.0044 C.2       5 UNK         0.5055 
     38 O          26.7525   30.5205    1.9155 O.2       5 UNK        -0.5220 
     39 N          28.9797   30.8666    2.1857 N.am      6 UNK        -0.4450 
     40 CA         28.9359   32.3018    2.4657 C.3       6 UNK         0.0367 
     41 CB         30.2958   32.9092    2.0706 C.3       6 UNK        -0.1929 
     42 C          28.6057   32.5737    3.9486 C.2       6 UNK         0.5070 
     43 O          28.3943   31.6410    4.7282 O.2       6 UNK        -0.5237 
     44 N          28.5887   33.8604    4.3258 N.am      7 UNK        -0.4739 
     45 CA         28.4914   34.3033    5.7239 C.3       7 UNK         0.0276 
     46 CB         28.1638   35.8049    5.7615 C.3       7 UNK        -0.1927 
     47 C          29.7714   34.0071    6.5322 C.2       7 UNK         0.5013 
     48 O          29.6933   33.8154    7.7465 O.2       7 UNK        -0.5193 
     49 N          30.9144   33.9659    5.8368 N.am      8 UNK        -0.4253 
     50 CA         32.2063   33.4979    6.3363 C.3       8 UNK         0.0242 
     51 CB         33.3077   34.3929    5.7393 C.3       8 UNK        -0.2000 
     52 C          32.4186   32.0305    5.9257 C.2       8 UNK         0.4948 
     53 O          31.6242   31.4795    5.1598 O.2       8 UNK        -0.5275 
     54 N          33.5131   31.4228    6.4012 N.am      9 UNK        -0.4246 
     55 CA         33.9456   30.0671    6.0406 C.3       9 UNK         0.0261 
     56 CB         34.9549   29.5690    7.0923 C.3       9 UNK        -0.1959 
     57 C          34.5073   30.0042    4.6032 C.2       9 UNK         0.5033 
     58 O          35.7038   29.7749    4.4135 O.2       9 UNK        -0.5390 
     59 N          33.6333   30.2383    3.6210 N.am      10 UNK        -0.4215 
     60 CA         33.9151   30.2566    2.1906 C.3       10 UNK         0.0240 
     61 CB         34.2776   31.6892    1.7596 C.3       10 UNK        -0.1982 
     62 C          32.6875   29.7423    1.4298 C.2       10 UNK         0.4970 
     63 O          31.5809   29.7370    1.9762 O.2       10 UNK        -0.4916 
     64 N          32.9148   29.3162    0.1852 N.am      11 UNK        -0.4279 
     65 CA         31.9071   28.7290   -0.7101 C.3       11 UNK         0.1003 
     66 C          32.1840   29.0051   -2.2170 C.2       11 UNK         0.5709 
     67 N          33.0411   29.9592   -2.5657 N.am      11 UNK        -0.7358 
     68 O          31.6069   28.3634   -3.0914 O.2       11 UNK        -0.4999 
     69 C69        31.6145   27.2372   -0.3781 C.3       12 UNK        -0.0954 
     70 S70        33.0761   26.1346   -0.4385 S.3       12 UNK        -0.2268 
     71 C71        33.6923   26.1188    1.2800 C.3       12 UNK         0.0203 
     72 H72        24.6657   20.6428    2.9748 H         1 UNK         0.0888 
     73 H73        25.4155   19.2323    3.7262 H         1 UNK         0.0888 
     74 H74        25.3096   20.7535    4.6153 H         1 UNK         0.0888 
     75 H75        27.4579   18.8491    2.9070 H         1 UNK         0.3017 
     76 H76        29.4554   19.0436    2.0177 H         1 UNK         0.0873 
     77 H77        29.6835   21.8115    3.3196 H         1 UNK         0.0745 
     78 H78        29.9323   20.3122    4.1607 H         1 UNK         0.0745 
     79 H79        32.1710   21.6751    4.8321 H         1 UNK         0.0705 
     80 H80        33.5825   21.7380    3.8131 H         1 UNK         0.0705 
     81 H81        33.8022   23.4892    2.0231 H         1 UNK         0.1334 
     82 H82        31.5992   27.1028    2.7324 H         1 UNK         0.1417 
     83 H83        30.5353   23.5143    4.8063 H         1 UNK         0.1562 
     84 H84        30.1254   27.1296    4.7454 H         1 UNK         0.0748 
     85 H85        29.5238   25.6438    5.4301 H         1 UNK         0.0748 
     86 H86        28.4913   28.4845    4.1175 H         1 UNK         0.0940 
     87 H87        26.8736   28.0649    3.6444 H         1 UNK         0.0940 
     88 H88        29.2064   28.4039    1.6802 H         1 UNK         0.0703 
     89 H89        26.5371   27.4013    1.2726 H         1 UNK         0.3081 
     90 H90        25.4571   27.8555   -1.0771 H         1 UNK         0.0719 
     91 H91        27.6814   27.0330   -3.0195 H         1 UNK         0.0809 
     92 H92        25.9528   27.0170   -3.3696 H         1 UNK         0.0809 
     93 H93        26.7745   28.5394   -3.0723 H         1 UNK         0.0809 
     94 H94        26.8090   25.2946   -1.5095 H         1 UNK         0.2990 
     95 H95        25.4023   23.7153    1.3495 H         1 UNK         0.0690 
     96 H96        24.7648   22.0903   -0.4107 H         1 UNK         0.0788 
     97 H97        25.0028   23.3105   -1.6607 H         1 UNK         0.0788 
     98 H98        23.7345   23.5120   -0.4635 H         1 UNK         0.0788 
     99 H99        27.4279   22.9862    1.1311 H         1 UNK         0.2993 
    100 H100       29.5638   22.0851   -1.4406 H         1 UNK         0.0949 
    101 H101       30.1700   24.5145    0.3394 H         1 UNK         0.0767 
    102 H102       31.3727   23.4546   -0.3924 H         1 UNK         0.0767 
    103 H103       30.3474   24.4510   -1.4103 H         1 UNK         0.0767 
    104 H104       29.9491   22.3069    1.4015 H         1 UNK         0.3013 
    105 H105       29.8968   30.4277    2.2498 H         1 UNK         0.3121 
    106 H106       28.1557   32.7601    1.8544 H         1 UNK         0.0774 
    107 H107       30.2886   33.9969    2.1425 H         1 UNK         0.0815 
    108 H108       30.5549   32.6613    1.0410 H         1 UNK         0.0815 
    109 H109       31.0985   32.5415    2.7105 H         1 UNK         0.0815 
    110 H110       28.7294   34.5785    3.6292 H         1 UNK         0.2987 
    111 H111       27.6710   33.7615    6.2002 H         1 UNK         0.0949 
    112 H112       27.2234   36.0192    5.2534 H         1 UNK         0.0806 
    113 H113       28.0613   36.1549    6.7897 H         1 UNK         0.0806 
    114 H114       28.9454   36.4026    5.2908 H         1 UNK         0.0806 
    115 H115       30.8452   34.0723    4.8362 H         1 UNK         0.3010 
    116 H116       32.2383   33.5638    7.4259 H         1 UNK         0.0829 
    117 H117       34.2911   34.1305    6.1310 H         1 UNK         0.0813 
    118 H118       33.3559   34.3054    4.6527 H         1 UNK         0.0813 
    119 H119       33.1382   35.4423    5.9819 H         1 UNK         0.0813 
    120 H120       34.1362   31.9460    6.9997 H         1 UNK         0.3038 
    121 H121       33.0777   29.4046    6.0775 H         1 UNK         0.0769 
    122 H122       35.8455   30.1977    7.1295 H         1 UNK         0.0811 
    123 H123       35.2824   28.5529    6.8676 H         1 UNK         0.0811 
    124 H124       34.5139   29.5517    8.0891 H         1 UNK         0.0811 
    125 H125       32.6669   30.4363    3.8767 H         1 UNK         0.3204 
    126 H126       34.7522   29.5881    1.9779 H         1 UNK         0.0748 
    127 H127       34.5010   31.7385    0.6934 H         1 UNK         0.0771 
    128 H128       33.4638   32.3877    1.9569 H         1 UNK         0.0771 
    129 H129       35.1596   32.0491    2.2900 H         1 UNK         0.0771 
    130 H130       33.8540   29.3383   -0.1852 H         1 UNK         0.2980 
    131 H131       30.9779   29.2726   -0.5320 H         1 UNK         0.0545 
    132 H132       33.4766   30.5516   -1.8784 H         1 UNK         0.3459 
    133 H133       33.2061   30.1270   -3.5459 H         1 UNK         0.3459 
    134 H134       30.8694   26.8419   -1.0699 H         1 UNK         0.0616 
    135 H135       31.1351   27.1673    0.5936 H         1 UNK         0.0616 
    136 H136       34.6790   25.6535    1.2793 H         1 UNK         0.0634 
    137 H137       33.8522   27.1368    1.6303 H         1 UNK         0.0634 
@<TRIPOS>BOND
     1    1    2 1    
     2    1   72 1    
     3    1   73 1    
     4    1   74 1    
     5    2    3 2    
     6    2    4 am   BACKBONE|DICT|INTERRES
     7    4    5 1    
     8    4   75 1    
     9    5    6 1    
    10    5   35 1    
    11    5   76 1    
    12    6    7 1    
    13    6   77 1    
    14    6   78 1    
    15    7    8 1    
    16    8    9 1    
    17    8   79 1    
    18    8   80 1    
    19    9   10 ar   
    20    9   14 ar   
    21   10   11 ar   
    22   10   81 1    
    23   11   12 ar   
    24   11   71 1    
    25   12   13 ar   
    26   12   82 1    
    27   13   14 ar   
    28   13   15 1    
    29   14   83 1    
    30   15   16 1    
    31   15   84 1    
    32   15   85 1    
    33   16   17 1    
    34   17   18 1    
    35   17   86 1    
    36   17   87 1    
    37   18   19 1    
    38   18   37 1    
    39   18   88 1    
    40   19   20 am   BACKBONE|DICT|INTERRES
    41   19   89 1    
    42   20   21 2    
    43   20   22 1    
    44   22   23 1    
    45   22   24 1    
    46   22   90 1    
    47   23   91 1    
    48   23   92 1    
    49   23   93 1    
    50   24   25 am   BACKBONE|DICT|INTERRES
    51   24   94 1    
    52   25   26 2    
    53   25   27 1    
    54   27   28 1    
    55   27   29 1    
    56   27   95 1    
    57   28   96 1    
    58   28   97 1    
    59   28   98 1    
    60   29   30 am   BACKBONE|DICT|INTERRES
    61   29   99 1    
    62   30   31 2    
    63   30   32 1    
    64   32   33 1    
    65   32   34 1    
    66   32  100 1    
    67   33  101 1    
    68   33  102 1    
    69   33  103 1    
    70   34   35 am   BACKBONE|DICT|INTERRES
    71   34  104 1    
    72   35   36 2    
    73   37   38 2    
    74   37   39 am   BACKBONE|DICT|INTERRES
    75   39   40 1    
    76   39  105 1    
    77   40   41 1    
    78   40   42 1    
    79   40  106 1    
    80   41  107 1    
    81   41  108 1    
    82   41  109 1    
    83   42   43 2    
    84   42   44 am   BACKBONE|DICT|INTERRES
    85   44   45 1    
    86   44  110 1    
    87   45   46 1    
    88   45   47 1    
    89   45  111 1    
    90   46  112 1    
    91   46  113 1    
    92   46  114 1    
    93   47   48 2    
    94   47   49 am   BACKBONE|DICT|INTERRES
    95   49   50 1    
    96   49  115 1    
    97   50   51 1    
    98   50   52 1    
    99   50  116 1    
   100   51  117 1    
   101   51  118 1    
   102   51  119 1    
   103   52   53 2    
   104   52   54 am   BACKBONE|DICT|INTERRES
   105   54   55 1    
   106   54  120 1    
   107   55   56 1    
   108   55   57 1    
   109   55  121 1    
   110   56  122 1    
   111   56  123 1    
   112   56  124 1    
   113   57   58 2    
   114   57   59 am   BACKBONE|DICT|INTERRES
   115   59   60 1    
   116   59  125 1    
   117   60   61 1    
   118   60   62 1    
   119   60  126 1    
   120   61  127 1    
   121   61  128 1    
   122   61  129 1    
   123   62   63 2    
   124   62   64 am   BACKBONE|DICT|INTERRES
   125   64   65 1    
   126   64  130 1    
   127   65   66 1    
   128   65   69 1    
   129   65  131 1    
   130   66   67 am   BACKBONE|DICT|INTERRES
   131   66   68 2    
   132   67  132 1    
   133   67  133 1    
   134   69   70 1    
   135   69  134 1    
   136   69  135 1    
   137   70   71 1    
   138   71  136 1    
   139   71  137 1    
@<TRIPOS>SUBSTRUCTURE
     1 UNK         1 GROUP             0       ****    0 ROOT    
