@<TRIPOS>MOLECULE
3R136
137   139    1
SMALL
USER_CHARGES


@<TRIPOS>ATOM
      1 CA         29.3655   22.7986    4.4830 C.3       0 UNK        -0.1979 
      2 C          28.8787   22.1945    3.1763 C.2       0 UNK         0.4864 
      3 O          28.0700   21.2651    3.1876 O.2       0 UNK        -0.5359 
      4 N          29.3548   22.7269    2.0445 N.am      1 UNK        -0.4318 
      5 CA         29.0743   22.2763    0.6730 C.3       1 UNK         0.0824 
      6 C6         30.1838   22.7206   -0.3199 C.3       12 UNK        -0.0944 
      7 S7         31.8583   22.1686    0.1653 S.3       12 UNK        -0.2672 
      8 C8         32.7335   23.7442    0.4441 C.3       12 UNK         0.0333 
      9 C9         32.3529   24.3758    1.7750 C.ar      12 UNK        -0.0807 
     10 C10        33.0845   24.0879    2.9320 C.ar      12 UNK        -0.0894 
     11 C11        32.7331   24.6650    4.1574 C.ar      12 UNK        -0.0804 
     12 C12        31.6213   25.5075    4.2264 C.ar      12 UNK        -0.0824 
     13 C13        30.8846   25.8022    3.0766 C.ar      12 UNK        -0.0762 
     14 C14        31.2738   25.2588    1.8494 C.ar      12 UNK        -0.0782 
     15 C15        29.7069   26.7560    3.1550 C.3       12 UNK         0.0230 
     16 S16        28.2152   26.1017    2.3554 S.3       12 UNK        -0.2608 
     17 C17        27.2909   27.6555    2.1278 C.3       12 UNK        -0.0989 
     18 CA         27.6320   28.3478    0.7825 C.3       5 UNK         0.0716 
     19 N          27.3217   27.4584   -0.3404 N.am      5 UNK        -0.4135 
     20 C          27.6798   27.6407   -1.6181 C.2       4 UNK         0.5031 
     21 O          28.3217   28.6089   -2.0221 O.2       4 UNK        -0.5229 
     22 CA         27.2829   26.5470   -2.6271 C.3       4 UNK         0.0329 
     23 CB         28.4792   25.6233   -2.9064 C.3       4 UNK        -0.2001 
     24 N          26.1330   25.7443   -2.1993 N.am      4 UNK        -0.4303 
     25 C          24.8726   26.2048   -2.1709 C.2       3 UNK         0.5044 
     26 O          24.5592   27.3371   -2.5408 O.2       3 UNK        -0.5152 
     27 CA         23.7617   25.2659   -1.6619 C.3       3 UNK         0.0319 
     28 CB         22.8485   24.8350   -2.8222 C.3       3 UNK        -0.2001 
     29 N          24.2327   24.0662   -0.9661 N.am      3 UNK        -0.4354 
     30 C          24.8614   24.0403    0.2167 C.2       2 UNK         0.4964 
     31 O          25.1668   25.0530    0.8472 O.2       2 UNK        -0.5047 
     32 CA         25.2063   22.6513    0.7945 C.3       2 UNK         0.0288 
     33 CB         24.6664   21.4665   -0.0403 C.3       2 UNK        -0.2113 
     34 N          26.6413   22.4675    1.0337 N.am      2 UNK        -0.4145 
     35 C          27.6553   22.6643    0.1785 C.2       1 UNK         0.5006 
     36 O          27.4997   23.1097   -0.9616 O.2       1 UNK        -0.5103 
     37 C          26.8567   29.6812    0.6612 C.2       5 UNK         0.5055 
     38 O          25.6390   29.6184    0.4895 O.2       5 UNK        -0.5220 
     39 N          27.4584   30.8793    0.7829 N.am      6 UNK        -0.4450 
     40 CA         28.8703   31.2788    0.9197 C.3       6 UNK         0.0367 
     41 CB         29.6784   30.9691   -0.3570 C.3       6 UNK        -0.1929 
     42 C          29.5711   30.8023    2.2040 C.2       6 UNK         0.5070 
     43 O          30.7738   30.5397    2.1767 O.2       6 UNK        -0.5237 
     44 N          28.8169   30.7040    3.3079 N.am      7 UNK        -0.4739 
     45 CA         29.2792   30.1906    4.6037 C.3       7 UNK         0.0276 
     46 CB         28.1190   30.1862    5.6123 C.3       7 UNK        -0.1927 
     47 C          30.5103   30.9148    5.1651 C.2       7 UNK         0.5013 
     48 O          31.5383   30.2747    5.3969 O.2       7 UNK        -0.5193 
     49 N          30.3918   32.2390    5.3267 N.am      8 UNK        -0.4253 
     50 CA         31.4407   33.1120    5.8626 C.3       8 UNK         0.0242 
     51 CB         30.8473   34.5027    6.1411 C.3       8 UNK        -0.2000 
     52 C          32.6803   33.2286    4.9581 C.2       8 UNK         0.4948 
     53 O          33.7674   33.5054    5.4658 O.2       8 UNK        -0.5275 
     54 N          32.4987   33.0252    3.6465 N.am      9 UNK        -0.4246 
     55 CA         33.5762   33.0272    2.6596 C.3       9 UNK         0.0261 
     56 CB         33.0002   33.3258    1.2658 C.3       9 UNK        -0.1959 
     57 C          34.3510   31.7010    2.6585 C.2       9 UNK         0.5033 
     58 O          35.5817   31.7257    2.6121 O.2       9 UNK        -0.5390 
     59 N          33.6238   30.5754    2.6863 N.am      10 UNK        -0.4215 
     60 CA         34.1895   29.2306    2.6028 C.3       10 UNK         0.0240 
     61 CB         33.0908   28.2379    2.2053 C.3       10 UNK        -0.1982 
     62 C          34.8917   28.7841    3.8937 C.2       10 UNK         0.4970 
     63 O          36.0681   28.4229    3.8320 O.2       10 UNK        -0.4916 
     64 N          34.1659   28.8004    5.0202 N.am      11 UNK        -0.4279 
     65 CA         34.6456   28.3042    6.3235 C.3       11 UNK         0.1003 
     66 C          34.3737   29.2761    7.5044 C.2       11 UNK         0.5709 
     67 N          33.4763   30.2458    7.3944 N.am      11 UNK        -0.7358 
     68 O          35.0132   29.1596    8.5474 O.2       11 UNK        -0.4999 
     69 C69        34.1157   26.8757    6.6394 C.3       12 UNK        -0.0954 
     70 S70        34.8999   25.5757    5.6233 S.3       12 UNK        -0.2268 
     71 C71        33.5506   24.3718    5.4060 C.3       12 UNK         0.0203 
     72 H72        28.9765   22.2431    5.3359 H         1 UNK         0.0888 
     73 H73        30.4537   22.7747    4.5324 H         1 UNK         0.0888 
     74 H74        29.0343   23.8330    4.5713 H         1 UNK         0.0888 
     75 H75        30.0068   23.4971    2.1137 H         1 UNK         0.3017 
     76 H76        29.0851   21.1844    0.6878 H         1 UNK         0.0873 
     77 H77        29.9896   22.3026   -1.3096 H         1 UNK         0.0745 
     78 H78        30.1717   23.8023   -0.4512 H         1 UNK         0.0745 
     79 H79        32.5339   24.4314   -0.3797 H         1 UNK         0.0705 
     80 H80        33.8076   23.5539    0.4227 H         1 UNK         0.0705 
     81 H81        33.9335   23.4201    2.8775 H         1 UNK         0.1334 
     82 H82        31.3388   25.9447    5.1737 H         1 UNK         0.1417 
     83 H83        30.7240   25.5185    0.9552 H         1 UNK         0.1562 
     84 H84        29.9946   27.6939    2.6800 H         1 UNK         0.0748 
     85 H85        29.4609   26.9712    4.1950 H         1 UNK         0.0748 
     86 H86        27.4851   28.3127    2.9757 H         1 UNK         0.0940 
     87 H87        26.2259   27.4169    2.1757 H         1 UNK         0.0940 
     88 H88        28.7031   28.5348    0.7566 H         1 UNK         0.0703 
     89 H89        26.7747   26.6404   -0.1066 H         1 UNK         0.3081 
     90 H90        27.0178   27.0451   -3.5622 H         1 UNK         0.0719 
     91 H91        29.3136   26.1851   -3.3283 H         1 UNK         0.0809 
     92 H92        28.2225   24.8389   -3.6186 H         1 UNK         0.0809 
     93 H93        28.8396   25.1463   -1.9953 H         1 UNK         0.0809 
     94 H94        26.3253   24.8048   -1.8700 H         1 UNK         0.2990 
     95 H95        23.1622   25.8419   -0.9538 H         1 UNK         0.0690 
     96 H96        22.0022   24.2473   -2.4658 H         1 UNK         0.0788 
     97 H97        23.3877   24.2380   -3.5590 H         1 UNK         0.0788 
     98 H98        22.4395   25.7023   -3.3426 H         1 UNK         0.0788 
     99 H99        24.0484   23.1826   -1.4190 H         1 UNK         0.2993 
    100 H100       24.7261   22.6114    1.7733 H         1 UNK         0.0949 
    101 H101       23.5841   21.5252   -0.1651 H         1 UNK         0.0767 
    102 H102       25.1203   21.4205   -1.0312 H         1 UNK         0.0767 
    103 H103       24.8728   20.5177    0.4555 H         1 UNK         0.0767 
    104 H104       26.8956   22.0951    1.9452 H         1 UNK         0.3013 
    105 H105       26.8336   31.6718    0.7300 H         1 UNK         0.3121 
    106 H106       28.8417   32.3660    1.0066 H         1 UNK         0.0774 
    107 H107       30.6068   31.5395   -0.3743 H         1 UNK         0.0815 
    108 H108       29.9591   29.9197   -0.4321 H         1 UNK         0.0815 
    109 H109       29.1246   31.2350   -1.2574 H         1 UNK         0.0815 
    110 H110       27.8453   30.9739    3.2464 H         1 UNK         0.2987 
    111 H111       29.5878   29.1600    4.4547 H         1 UNK         0.0949 
    112 H112       27.3099   29.5340    5.2830 H         1 UNK         0.0806 
    113 H113       28.4488   29.8196    6.5857 H         1 UNK         0.0806 
    114 H114       27.7038   31.1832    5.7633 H         1 UNK         0.0806 
    115 H115       29.5127   32.6743    5.0870 H         1 UNK         0.3010 
    116 H116       31.7730   32.6878    6.8125 H         1 UNK         0.0829 
    117 H117       30.0238   34.4485    6.8535 H         1 UNK         0.0813 
    118 H118       31.5983   35.1689    6.5684 H         1 UNK         0.0813 
    119 H119       30.4751   34.9737    5.2303 H         1 UNK         0.0813 
    120 H120       31.5763   32.7757    3.3215 H         1 UNK         0.3038 
    121 H121       34.2787   33.8260    2.9086 H         1 UNK         0.0769 
    122 H122       32.2836   32.5670    0.9528 H         1 UNK         0.0811 
    123 H123       33.7920   33.3542    0.5160 H         1 UNK         0.0811 
    124 H124       32.4978   34.2929    1.2425 H         1 UNK         0.0811 
    125 H125       32.6078   30.6393    2.6805 H         1 UNK         0.3204 
    126 H126       34.9357   29.2286    1.8051 H         1 UNK         0.0748 
    127 H127       33.4835   27.2218    2.1488 H         1 UNK         0.0771 
    128 H128       32.2811   28.2397    2.9338 H         1 UNK         0.0771 
    129 H129       32.6644   28.4802    1.2318 H         1 UNK         0.0771 
    130 H130       33.2198   29.1646    4.9988 H         1 UNK         0.2980 
    131 H131       35.7351   28.2441    6.2929 H         1 UNK         0.0545 
    132 H132       32.8684   30.3156    6.5827 H         1 UNK         0.3459 
    133 H133       33.3391   30.8650    8.1761 H         1 UNK         0.3459 
    134 H134       34.3097   26.6087    7.6801 H         1 UNK         0.0616 
    135 H135       33.0328   26.8445    6.5182 H         1 UNK         0.0616 
    136 H136       33.9852   23.3738    5.3331 H         1 UNK         0.0634 
    137 H137       32.9131   24.3591    6.2915 H         1 UNK         0.0634 
@<TRIPOS>BOND
     1    1    2 1    
     2    1   72 1    
     3    1   73 1    
     4    1   74 1    
     5    2    3 2    
     6    2    4 am   BACKBONE|DICT|INTERRES
     7    4    5 1    
     8    4   75 1    
     9    5    6 1    
    10    5   35 1    
    11    5   76 1    
    12    6    7 1    
    13    6   77 1    
    14    6   78 1    
    15    7    8 1    
    16    8    9 1    
    17    8   79 1    
    18    8   80 1    
    19    9   10 ar   
    20    9   14 ar   
    21   10   11 ar   
    22   10   81 1    
    23   11   12 ar   
    24   11   71 1    
    25   12   13 ar   
    26   12   82 1    
    27   13   14 ar   
    28   13   15 1    
    29   14   83 1    
    30   15   16 1    
    31   15   84 1    
    32   15   85 1    
    33   16   17 1    
    34   17   18 1    
    35   17   86 1    
    36   17   87 1    
    37   18   19 1    
    38   18   37 1    
    39   18   88 1    
    40   19   20 am   BACKBONE|DICT|INTERRES
    41   19   89 1    
    42   20   21 2    
    43   20   22 1    
    44   22   23 1    
    45   22   24 1    
    46   22   90 1    
    47   23   91 1    
    48   23   92 1    
    49   23   93 1    
    50   24   25 am   BACKBONE|DICT|INTERRES
    51   24   94 1    
    52   25   26 2    
    53   25   27 1    
    54   27   28 1    
    55   27   29 1    
    56   27   95 1    
    57   28   96 1    
    58   28   97 1    
    59   28   98 1    
    60   29   30 am   BACKBONE|DICT|INTERRES
    61   29   99 1    
    62   30   31 2    
    63   30   32 1    
    64   32   33 1    
    65   32   34 1    
    66   32  100 1    
    67   33  101 1    
    68   33  102 1    
    69   33  103 1    
    70   34   35 am   BACKBONE|DICT|INTERRES
    71   34  104 1    
    72   35   36 2    
    73   37   38 2    
    74   37   39 am   BACKBONE|DICT|INTERRES
    75   39   40 1    
    76   39  105 1    
    77   40   41 1    
    78   40   42 1    
    79   40  106 1    
    80   41  107 1    
    81   41  108 1    
    82   41  109 1    
    83   42   43 2    
    84   42   44 am   BACKBONE|DICT|INTERRES
    85   44   45 1    
    86   44  110 1    
    87   45   46 1    
    88   45   47 1    
    89   45  111 1    
    90   46  112 1    
    91   46  113 1    
    92   46  114 1    
    93   47   48 2    
    94   47   49 am   BACKBONE|DICT|INTERRES
    95   49   50 1    
    96   49  115 1    
    97   50   51 1    
    98   50   52 1    
    99   50  116 1    
   100   51  117 1    
   101   51  118 1    
   102   51  119 1    
   103   52   53 2    
   104   52   54 am   BACKBONE|DICT|INTERRES
   105   54   55 1    
   106   54  120 1    
   107   55   56 1    
   108   55   57 1    
   109   55  121 1    
   110   56  122 1    
   111   56  123 1    
   112   56  124 1    
   113   57   58 2    
   114   57   59 am   BACKBONE|DICT|INTERRES
   115   59   60 1    
   116   59  125 1    
   117   60   61 1    
   118   60   62 1    
   119   60  126 1    
   120   61  127 1    
   121   61  128 1    
   122   61  129 1    
   123   62   63 2    
   124   62   64 am   BACKBONE|DICT|INTERRES
   125   64   65 1    
   126   64  130 1    
   127   65   66 1    
   128   65   69 1    
   129   65  131 1    
   130   66   67 am   BACKBONE|DICT|INTERRES
   131   66   68 2    
   132   67  132 1    
   133   67  133 1    
   134   69   70 1    
   135   69  134 1    
   136   69  135 1    
   137   70   71 1    
   138   71  136 1    
   139   71  137 1    
@<TRIPOS>SUBSTRUCTURE
     1 UNK         1 GROUP             0       ****    0 ROOT    
