@<TRIPOS>MOLECULE
3R136
137   139    1
SMALL
USER_CHARGES


@<TRIPOS>ATOM
      1 CA         32.3561   25.3102   -3.1642 C.3       0 UNK        -0.1979 
      2 C          30.9830   25.9225   -2.9310 C.2       0 UNK         0.4864 
      3 O          30.4168   26.5208   -3.8466 O.2       0 UNK        -0.5359 
      4 N          30.4451   25.7761   -1.7124 N.am      1 UNK        -0.4318 
      5 CA         29.1468   26.3274   -1.2969 C.3       1 UNK         0.0824 
      6 C6         29.0263   26.4377    0.2441 C.3       12 UNK        -0.0944 
      7 S7         30.3697   27.4234    0.9856 S.3       12 UNK        -0.2672 
      8 C8         31.3626   26.1550    1.8315 C.3       12 UNK         0.0333 
      9 C9         30.9248   25.9939    3.2778 C.ar      12 UNK        -0.0807 
     10 C10        31.4532   26.8409    4.2553 C.ar      12 UNK        -0.0894 
     11 C11        31.0588   26.7195    5.5896 C.ar      12 UNK        -0.0804 
     12 C12        30.1126   25.7528    5.9410 C.ar      12 UNK        -0.0824 
     13 C13        29.5787   24.8944    4.9736 C.ar      12 UNK        -0.0762 
     14 C14        30.0013   25.0092    3.6441 C.ar      12 UNK        -0.0782 
     15 C15        28.5510   23.8411    5.3765 C.3       12 UNK         0.0230 
     16 S16        26.9263   24.0685    4.5737 S.3       12 UNK        -0.2608 
     17 C17        26.5768   25.8318    4.8815 C.3       12 UNK        -0.0989 
     18 CA         26.8259   26.6734    3.6026 C.3       5 UNK         0.0716 
     19 N          25.6716   26.7077    2.7095 N.am      5 UNK        -0.4135 
     20 C          25.5328   25.9777    1.5999 C.2       4 UNK         0.5031 
     21 O          26.2958   25.0645    1.2785 O.2       4 UNK        -0.5229 
     22 CA         24.3745   26.3827    0.6734 C.3       4 UNK         0.0329 
     23 CB         24.5935   27.7992    0.1086 C.3       4 UNK        -0.2001 
     24 N          24.2677   25.4500   -0.4479 N.am      4 UNK        -0.4303 
     25 C          23.4801   24.3669   -0.4689 C.2       3 UNK         0.5044 
     26 O          22.6853   24.0820    0.4286 O.2       3 UNK        -0.5152 
     27 CA         23.5685   23.4464   -1.7015 C.3       3 UNK         0.0319 
     28 CB         22.3823   23.7002   -2.6465 C.3       3 UNK        -0.2001 
     29 N          24.8160   23.5934   -2.4554 N.am      3 UNK        -0.4354 
     30 C          26.0042   23.1070   -2.0722 C.2       2 UNK         0.4964 
     31 O          26.1737   22.4332   -1.0555 O.2       2 UNK        -0.5047 
     32 CA         27.2138   23.4035   -2.9792 C.3       2 UNK         0.0288 
     33 CB         26.8415   23.9233   -4.3881 C.3       2 UNK        -0.2113 
     34 N          28.1712   24.3079   -2.3329 N.am      2 UNK        -0.4145 
     35 C          27.9452   25.5584   -1.8954 C.2       1 UNK         0.5006 
     36 O          26.8498   26.1199   -1.9675 O.2       1 UNK        -0.5103 
     37 C          27.1727   28.1292    3.9365 C.2       5 UNK         0.5055 
     38 O          26.2719   28.9705    3.9975 O.2       5 UNK        -0.5220 
     39 N          28.4735   28.3902    4.1292 N.am      6 UNK        -0.4450 
     40 CA         29.0877   29.6947    4.4131 C.3       6 UNK         0.0367 
     41 CB         28.6370   30.2286    5.7888 C.3       6 UNK        -0.1929 
     42 C          28.9178   30.7329    3.2835 C.2       6 UNK         0.5070 
     43 O          29.0269   31.9333    3.5375 O.2       6 UNK        -0.5237 
     44 N          28.6843   30.2611    2.0496 N.am      7 UNK        -0.4739 
     45 CA         28.6452   31.0847    0.8364 C.3       7 UNK         0.0276 
     46 CB         27.9509   30.3017   -0.2891 C.3       7 UNK        -0.1927 
     47 C          30.0515   31.5377    0.4037 C.2       7 UNK         0.5013 
     48 O          30.1931   32.6137   -0.1783 O.2       7 UNK        -0.5193 
     49 N          31.0577   30.7197    0.7293 N.am      8 UNK        -0.4253 
     50 CA         32.4788   31.0293    0.6721 C.3       8 UNK         0.0242 
     51 CB         33.1759   30.0257   -0.2613 C.3       8 UNK        -0.2000 
     52 C          33.0194   30.8963    2.0992 C.2       8 UNK         0.4948 
     53 O          32.5652   30.0225    2.8447 O.2       8 UNK        -0.5275 
     54 N          34.0059   31.7278    2.4535 N.am      9 UNK        -0.4246 
     55 CA         34.6167   31.8034    3.7871 C.3       9 UNK         0.0261 
     56 CB         35.2805   33.1839    3.9519 C.3       9 UNK        -0.1959 
     57 C          35.5880   30.6430    4.0984 C.2       9 UNK         0.5033 
     58 O          36.6398   30.8671    4.7011 O.2       9 UNK        -0.5390 
     59 N          35.2183   29.4157    3.7086 N.am      10 UNK        -0.4215 
     60 CA         35.9960   28.1865    3.9055 C.3       10 UNK         0.0240 
     61 CB         35.3312   27.0346    3.1342 C.3       10 UNK        -0.1982 
     62 C          36.1859   27.8084    5.3860 C.2       10 UNK         0.4970 
     63 O          37.1718   27.1498    5.7190 O.2       10 UNK        -0.4916 
     64 N          35.2532   28.2480    6.2390 N.am      11 UNK        -0.4279 
     65 CA         35.3097   28.1147    7.7014 C.3       11 UNK         0.1003 
     66 C          36.2231   29.1680    8.3972 C.2       11 UNK         0.5709 
     67 N          36.8027   30.1342    7.6916 N.am      11 UNK        -0.7358 
     68 O          36.4210   29.1002    9.6080 O.2       11 UNK        -0.4999 
     69 C69        33.8878   28.0909    8.3249 C.3       12 UNK        -0.0954 
     70 S70        32.8720   26.7281    7.6613 S.3       12 UNK        -0.2268 
     71 C71        31.6593   27.6303    6.6486 C.3       12 UNK         0.0203 
     72 H72        32.7401   24.8160   -2.2719 H         1 UNK         0.0888 
     73 H73        32.3076   24.5738   -3.9659 H         1 UNK         0.0888 
     74 H74        33.0664   26.0839   -3.4542 H         1 UNK         0.0888 
     75 H75        30.9663   25.2942   -0.9950 H         1 UNK         0.3017 
     76 H76        29.0844   27.3399   -1.7012 H         1 UNK         0.0873 
     77 H77        28.0910   26.9343    0.5046 H         1 UNK         0.0745 
     78 H78        28.9860   25.4498    0.7060 H         1 UNK         0.0745 
     79 H79        32.4102   26.4581    1.7981 H         1 UNK         0.0705 
     80 H80        31.3071   25.2041    1.3004 H         1 UNK         0.0705 
     81 H81        32.1688   27.6010    3.9729 H         1 UNK         0.1334 
     82 H82        29.8041   25.6636    6.9740 H         1 UNK         0.1417 
     83 H83        29.5896   24.3465    2.8945 H         1 UNK         0.1562 
     84 H84        28.4048   23.8383    6.4578 H         1 UNK         0.0748 
     85 H85        28.9349   22.8529    5.1198 H         1 UNK         0.0748 
     86 H86        27.1939   26.1673    5.7174 H         1 UNK         0.0940 
     87 H87        25.5449   25.9369    5.2212 H         1 UNK         0.0940 
     88 H88        27.6805   26.2722    3.0557 H         1 UNK         0.0703 
     89 H89        25.0440   27.4825    2.8840 H         1 UNK         0.3081 
     90 H90        23.4504   26.3772    1.2553 H         1 UNK         0.0719 
     91 H91        25.5419   27.8798   -0.4236 H         1 UNK         0.0809 
     92 H92        23.7992   28.0745   -0.5854 H         1 UNK         0.0809 
     93 H93        24.5999   28.5499    0.8996 H         1 UNK         0.0809 
     94 H94        24.9661   25.5584   -1.1755 H         1 UNK         0.2990 
     95 H95        23.5028   22.4166   -1.3437 H         1 UNK         0.0690 
     96 H96        22.3887   23.0066   -3.4877 H         1 UNK         0.0788 
     97 H97        22.3938   24.7151   -3.0461 H         1 UNK         0.0788 
     98 H98        21.4329   23.5660   -2.1260 H         1 UNK         0.0788 
     99 H99        24.7766   24.1439   -3.3013 H         1 UNK         0.2993 
    100 H100       27.7289   22.4504   -3.1102 H         1 UNK         0.0949 
    101 H101       26.1682   23.2332   -4.8987 H         1 UNK         0.0767 
    102 H102       26.3599   24.9013   -4.3597 H         1 UNK         0.0767 
    103 H103       27.7304   24.0184   -5.0123 H         1 UNK         0.0767 
    104 H104       29.0993   23.9336   -2.1985 H         1 UNK         0.3013 
    105 H105       29.1291   27.6211    4.0564 H         1 UNK         0.3121 
    106 H106       30.1616   29.5121    4.4733 H         1 UNK         0.0774 
    107 H107       29.2115   31.1108    6.0737 H         1 UNK         0.0815 
    108 H108       27.5847   30.5141    5.7873 H         1 UNK         0.0815 
    109 H109       28.7823   29.4836    6.5708 H         1 UNK         0.0815 
    110 H110       28.6229   29.2610    1.9254 H         1 UNK         0.2987 
    111 H111       28.0571   31.9813    1.0449 H         1 UNK         0.0949 
    112 H112       28.5003   29.3985   -0.5524 H         1 UNK         0.0806 
    113 H113       26.9395   30.0114   -0.0050 H         1 UNK         0.0806 
    114 H114       27.8717   30.9082   -1.1923 H         1 UNK         0.0806 
    115 H115       30.8364   29.8799    1.2495 H         1 UNK         0.3010 
    116 H116       32.6426   32.0470    0.3112 H         1 UNK         0.0829 
    117 H117       34.2452   30.2297   -0.3283 H         1 UNK         0.0813 
    118 H118       33.0593   28.9988    0.0889 H         1 UNK         0.0813 
    119 H119       32.7701   30.0798   -1.2716 H         1 UNK         0.0813 
    120 H120       34.3590   32.3788    1.7663 H         1 UNK         0.3038 
    121 H121       33.8157   31.7375    4.5268 H         1 UNK         0.0769 
    122 H122       35.6705   33.3154    4.9623 H         1 UNK         0.0811 
    123 H123       34.5689   33.9913    3.7782 H         1 UNK         0.0811 
    124 H124       36.1144   33.3147    3.2610 H         1 UNK         0.0811 
    125 H125       34.3063   29.3318    3.2668 H         1 UNK         0.3204 
    126 H126       36.9884   28.3549    3.4820 H         1 UNK         0.0748 
    127 H127       35.9380   26.1297    3.1895 H         1 UNK         0.0771 
    128 H128       34.3499   26.7896    3.5400 H         1 UNK         0.0771 
    129 H129       35.2093   27.2778    2.0784 H         1 UNK         0.0771 
    130 H130       34.4836   28.7848    5.8722 H         1 UNK         0.2980 
    131 H131       35.7691   27.1498    7.9241 H         1 UNK         0.0545 
    132 H132       36.6780   30.2078    6.6892 H         1 UNK         0.3459 
    133 H133       37.3924   30.7974    8.1685 H         1 UNK         0.3459 
    134 H134       33.9477   27.9497    9.4056 H         1 UNK         0.0616 
    135 H135       33.3809   29.0453    8.1723 H         1 UNK         0.0616 
    136 H136       32.1375   28.4898    6.1763 H         1 UNK         0.0634 
    137 H137       30.8727   28.0266    7.2921 H         1 UNK         0.0634 
@<TRIPOS>BOND
     1    1    2 1    
     2    1   72 1    
     3    1   73 1    
     4    1   74 1    
     5    2    3 2    
     6    2    4 am   BACKBONE|DICT|INTERRES
     7    4    5 1    
     8    4   75 1    
     9    5    6 1    
    10    5   35 1    
    11    5   76 1    
    12    6    7 1    
    13    6   77 1    
    14    6   78 1    
    15    7    8 1    
    16    8    9 1    
    17    8   79 1    
    18    8   80 1    
    19    9   10 ar   
    20    9   14 ar   
    21   10   11 ar   
    22   10   81 1    
    23   11   12 ar   
    24   11   71 1    
    25   12   13 ar   
    26   12   82 1    
    27   13   14 ar   
    28   13   15 1    
    29   14   83 1    
    30   15   16 1    
    31   15   84 1    
    32   15   85 1    
    33   16   17 1    
    34   17   18 1    
    35   17   86 1    
    36   17   87 1    
    37   18   19 1    
    38   18   37 1    
    39   18   88 1    
    40   19   20 am   BACKBONE|DICT|INTERRES
    41   19   89 1    
    42   20   21 2    
    43   20   22 1    
    44   22   23 1    
    45   22   24 1    
    46   22   90 1    
    47   23   91 1    
    48   23   92 1    
    49   23   93 1    
    50   24   25 am   BACKBONE|DICT|INTERRES
    51   24   94 1    
    52   25   26 2    
    53   25   27 1    
    54   27   28 1    
    55   27   29 1    
    56   27   95 1    
    57   28   96 1    
    58   28   97 1    
    59   28   98 1    
    60   29   30 am   BACKBONE|DICT|INTERRES
    61   29   99 1    
    62   30   31 2    
    63   30   32 1    
    64   32   33 1    
    65   32   34 1    
    66   32  100 1    
    67   33  101 1    
    68   33  102 1    
    69   33  103 1    
    70   34   35 am   BACKBONE|DICT|INTERRES
    71   34  104 1    
    72   35   36 2    
    73   37   38 2    
    74   37   39 am   BACKBONE|DICT|INTERRES
    75   39   40 1    
    76   39  105 1    
    77   40   41 1    
    78   40   42 1    
    79   40  106 1    
    80   41  107 1    
    81   41  108 1    
    82   41  109 1    
    83   42   43 2    
    84   42   44 am   BACKBONE|DICT|INTERRES
    85   44   45 1    
    86   44  110 1    
    87   45   46 1    
    88   45   47 1    
    89   45  111 1    
    90   46  112 1    
    91   46  113 1    
    92   46  114 1    
    93   47   48 2    
    94   47   49 am   BACKBONE|DICT|INTERRES
    95   49   50 1    
    96   49  115 1    
    97   50   51 1    
    98   50   52 1    
    99   50  116 1    
   100   51  117 1    
   101   51  118 1    
   102   51  119 1    
   103   52   53 2    
   104   52   54 am   BACKBONE|DICT|INTERRES
   105   54   55 1    
   106   54  120 1    
   107   55   56 1    
   108   55   57 1    
   109   55  121 1    
   110   56  122 1    
   111   56  123 1    
   112   56  124 1    
   113   57   58 2    
   114   57   59 am   BACKBONE|DICT|INTERRES
   115   59   60 1    
   116   59  125 1    
   117   60   61 1    
   118   60   62 1    
   119   60  126 1    
   120   61  127 1    
   121   61  128 1    
   122   61  129 1    
   123   62   63 2    
   124   62   64 am   BACKBONE|DICT|INTERRES
   125   64   65 1    
   126   64  130 1    
   127   65   66 1    
   128   65   69 1    
   129   65  131 1    
   130   66   67 am   BACKBONE|DICT|INTERRES
   131   66   68 2    
   132   67  132 1    
   133   67  133 1    
   134   69   70 1    
   135   69  134 1    
   136   69  135 1    
   137   70   71 1    
   138   71  136 1    
   139   71  137 1    
@<TRIPOS>SUBSTRUCTURE
     1 UNK         1 GROUP             0       ****    0 ROOT    
