@<TRIPOS>MOLECULE
3R136
137   139    1
SMALL
USER_CHARGES


@<TRIPOS>ATOM
      1 CA         28.3566   21.9705   -1.1225 C.3       0 UNK        -0.1979 
      2 C          28.3362   23.4379   -1.5184 C.2       0 UNK         0.4864 
      3 O          27.5442   23.8299   -2.3776 O.2       0 UNK        -0.5359 
      4 N          29.2011   24.2555   -0.9020 N.am      1 UNK        -0.4318 
      5 CA         29.3117   25.6990   -1.1502 C.3       1 UNK         0.0824 
      6 C6         30.5342   26.3272   -0.4415 C.3       12 UNK        -0.0944 
      7 S7         32.0823   25.6096   -1.0898 S.3       12 UNK        -0.2672 
      8 C8         33.2408   25.8487    0.2975 C.3       12 UNK         0.0333 
      9 C9         32.8727   25.1008    1.5777 C.ar      12 UNK        -0.0807 
     10 C10        33.1799   25.6866    2.8089 C.ar      12 UNK        -0.0894 
     11 C11        32.8692   25.0406    4.0085 C.ar      12 UNK        -0.0804 
     12 C12        32.2505   23.7887    3.9691 C.ar      12 UNK        -0.0824 
     13 C13        31.9444   23.1816    2.7468 C.ar      12 UNK        -0.0762 
     14 C14        32.2691   23.8363    1.5547 C.ar      12 UNK        -0.0782 
     15 C15        31.2782   21.8108    2.7196 C.3       12 UNK         0.0230 
     16 S16        29.4959   21.9018    2.3403 S.3       12 UNK        -0.2608 
     17 C17        28.8804   22.9941    3.6644 C.3       12 UNK        -0.0989 
     18 CA         28.4949   24.3836    3.0828 C.3       5 UNK         0.0716 
     19 N          27.1744   24.4217    2.4397 N.am      5 UNK        -0.4135 
     20 C          25.9890   24.2524    3.0471 C.2       4 UNK         0.5031 
     21 O          25.8590   23.8336    4.1979 O.2       4 UNK        -0.5229 
     22 CA         24.7207   24.6517    2.2778 C.3       4 UNK         0.0329 
     23 CB         24.2409   26.0386    2.7423 C.3       4 UNK        -0.2001 
     24 N          24.8970   24.6829    0.8240 N.am      4 UNK        -0.4303 
     25 C          24.0379   24.1523   -0.0595 C.2       3 UNK         0.5044 
     26 O          23.0618   23.4735    0.2653 O.2       3 UNK        -0.5152 
     27 CA         24.2999   24.4205   -1.5586 C.3       3 UNK         0.0319 
     28 CB         22.9978   24.5243   -2.3816 C.3       3 UNK        -0.2001 
     29 N          25.1762   25.5725   -1.8085 N.am      3 UNK        -0.4354 
     30 C          24.9532   26.8603   -1.4896 C.2       2 UNK         0.4964 
     31 O          23.8817   27.2765   -1.0473 O.2       2 UNK        -0.5047 
     32 CA         26.1341   27.8454   -1.6572 C.3       2 UNK         0.0288 
     33 CB         26.1194   28.9541   -0.5831 C.3       2 UNK        -0.2113 
     34 N          27.4550   27.1978   -1.7047 N.am      2 UNK        -0.4145 
     35 C          28.0004   26.4085   -0.7660 C.2       1 UNK         0.5006 
     36 O          27.4725   26.1552    0.3212 O.2       1 UNK        -0.5103 
     37 C          28.6081   25.5546    4.0802 C.2       5 UNK         0.5055 
     38 O          28.8266   25.3521    5.2757 O.2       5 UNK        -0.5220 
     39 N          28.4029   26.7640    3.5465 N.am      6 UNK        -0.4450 
     40 CA         28.4130   28.0492    4.2335 C.3       6 UNK         0.0367 
     41 CB         27.1392   28.2012    5.0904 C.3       6 UNK        -0.1929 
     42 C          28.4977   29.1452    3.1613 C.2       6 UNK         0.5070 
     43 O          28.4453   28.8333    1.9692 O.2       6 UNK        -0.5237 
     44 N          28.6054   30.4041    3.6066 N.am      7 UNK        -0.4739 
     45 CA         28.6578   31.6286    2.7962 C.3       7 UNK         0.0276 
     46 CB         27.3026   31.8786    2.0995 C.3       7 UNK        -0.1927 
     47 C          29.8528   31.6511    1.8227 C.2       7 UNK         0.5013 
     48 O          29.6843   31.9487    0.6378 O.2       7 UNK        -0.5193 
     49 N          31.0395   31.3353    2.3514 N.am      8 UNK        -0.4253 
     50 CA         32.3148   31.3519    1.6373 C.3       8 UNK         0.0242 
     51 CB         32.8019   29.9044    1.4427 C.3       8 UNK        -0.2000 
     52 C          33.3300   32.1776    2.4374 C.2       8 UNK         0.4948 
     53 O          33.0899   32.4881    3.6068 O.2       8 UNK        -0.5275 
     54 N          34.4713   32.4880    1.8070 N.am      9 UNK        -0.4246 
     55 CA         35.5535   33.3211    2.3540 C.3       9 UNK         0.0261 
     56 CB         36.6605   33.4647    1.2962 C.3       9 UNK        -0.1959 
     57 C          36.1521   32.8390    3.6913 C.2       9 UNK         0.5033 
     58 O          36.7048   33.6578    4.4277 O.2       9 UNK        -0.5390 
     59 N          36.0209   31.5402    3.9857 N.am      10 UNK        -0.4215 
     60 CA         36.4064   30.9166    5.2498 C.3       10 UNK         0.0240 
     61 CB         37.7624   30.2040    5.0748 C.3       10 UNK        -0.1982 
     62 C          35.2961   29.9807    5.7622 C.2       10 UNK         0.4970 
     63 O          35.6101   28.9470    6.3548 O.2       10 UNK        -0.4916 
     64 N          34.0237   30.3356    5.5286 N.am      11 UNK        -0.4279 
     65 CA         32.8627   29.5551    5.9735 C.3       11 UNK         0.1003 
     66 C          31.6587   30.4929    6.2253 C.2       11 UNK         0.5709 
     67 N          31.3102   30.7512    7.4778 N.am      11 UNK        -0.7358 
     68 O          31.0239   30.9717    5.2892 O.2       11 UNK        -0.4999 
     69 C69        32.5289   28.3957    4.9919 C.3       12 UNK        -0.0954 
     70 S70        31.9674   26.8975    5.8634 S.3       12 UNK        -0.2268 
     71 C71        33.2172   25.6778    5.3479 C.3       12 UNK         0.0203 
     72 H72        27.5789   21.7698   -0.3860 H         1 UNK         0.0888 
     73 H73        28.1754   21.3406   -1.9929 H         1 UNK         0.0888 
     74 H74        29.3178   21.6839   -0.6967 H         1 UNK         0.0888 
     75 H75        29.8236   23.8835   -0.2009 H         1 UNK         0.3017 
     76 H76        29.4540   25.8213   -2.2265 H         1 UNK         0.0873 
     77 H77        30.5676   27.4064   -0.6047 H         1 UNK         0.0745 
     78 H78        30.4722   26.1809    0.6384 H         1 UNK         0.0745 
     79 H79        33.3169   26.9198    0.4918 H         1 UNK         0.0705 
     80 H80        34.2318   25.5214   -0.0191 H         1 UNK         0.0705 
     81 H81        33.6718   26.6477    2.8286 H         1 UNK         0.1334 
     82 H82        32.0101   23.2845    4.8951 H         1 UNK         0.1417 
     83 H83        32.0501   23.3573    0.6107 H         1 UNK         0.1562 
     84 H84        31.4127   21.2994    3.6741 H         1 UNK         0.0748 
     85 H85        31.7657   21.1847    1.9709 H         1 UNK         0.0748 
     86 H86        29.6456   23.0771    4.4355 H         1 UNK         0.0940 
     87 H87        28.0370   22.5116    4.1577 H         1 UNK         0.0940 
     88 H88        29.2173   24.6269    2.3015 H         1 UNK         0.0703 
     89 H89        27.1798   24.8572    1.5216 H         1 UNK         0.3081 
     90 H90        23.9582   23.9183    2.5484 H         1 UNK         0.0719 
     91 H91        24.0924   26.0634    3.8229 H         1 UNK         0.0809 
     92 H92        24.9630   26.8174    2.4922 H         1 UNK         0.0809 
     93 H93        23.2907   26.3039    2.2782 H         1 UNK         0.0809 
     94 H94        25.6671   25.2393    0.4695 H         1 UNK         0.2990 
     95 H95        24.8446   23.5481   -1.9221 H         1 UNK         0.0690 
     96 H96        22.3512   25.3242   -2.0201 H         1 UNK         0.0788 
     97 H97        22.4257   23.5974   -2.3278 H         1 UNK         0.0788 
     98 H98        23.2080   24.7115   -3.4346 H         1 UNK         0.0788 
     99 H99        26.0946   25.3189   -2.1593 H         1 UNK         0.2993 
    100 H100       25.9905   28.3217   -2.6282 H         1 UNK         0.0949 
    101 H101       26.1601   28.5396    0.4250 H         1 UNK         0.0767 
    102 H102       26.9671   29.6298   -0.6981 H         1 UNK         0.0767 
    103 H103       25.2132   29.5571   -0.6497 H         1 UNK         0.0767 
    104 H104       27.9565   27.3154   -2.5747 H         1 UNK         0.3013 
    105 H105       28.2513   26.8599    2.5458 H         1 UNK         0.3121 
    106 H106       29.3004   28.1099    4.8661 H         1 UNK         0.0774 
    107 H107       27.1313   29.1507    5.6261 H         1 UNK         0.0815 
    108 H108       26.2380   28.1634    4.4771 H         1 UNK         0.0815 
    109 H109       27.0643   27.4139    5.8405 H         1 UNK         0.0815 
    110 H110       28.7213   30.5466    4.6013 H         1 UNK         0.2987 
    111 H111       28.8245   32.4513    3.4935 H         1 UNK         0.0949 
    112 H112       26.4837   31.8950    2.8185 H         1 UNK         0.0806 
    113 H113       27.2997   32.8394    1.5834 H         1 UNK         0.0806 
    114 H114       27.0814   31.1113    1.3574 H         1 UNK         0.0806 
    115 H115       31.1004   31.1991    3.3587 H         1 UNK         0.3010 
    116 H116       32.1972   31.8248    0.6599 H         1 UNK         0.0829 
    117 H117       32.0371   29.2907    0.9654 H         1 UNK         0.0813 
    118 H118       33.6867   29.8669    0.8065 H         1 UNK         0.0813 
    119 H119       33.0629   29.4340    2.3891 H         1 UNK         0.0813 
    120 H120       34.5906   32.1785    0.8526 H         1 UNK         0.3038 
    121 H121       35.1304   34.3106    2.5390 H         1 UNK         0.0769 
    122 H122       36.2809   33.9188    0.3808 H         1 UNK         0.0811 
    123 H123       37.4679   34.1027    1.6590 H         1 UNK         0.0811 
    124 H124       37.0996   32.5002    1.0380 H         1 UNK         0.0811 
    125 H125       35.5531   30.9453    3.3168 H         1 UNK         0.3204 
    126 H126       36.5234   31.6820    6.0198 H         1 UNK         0.0748 
    127 H127       38.1097   29.7785    6.0172 H         1 UNK         0.0771 
    128 H128       37.6985   29.3912    4.3504 H         1 UNK         0.0771 
    129 H129       38.5317   30.8971    4.7337 H         1 UNK         0.0771 
    130 H130       33.8072   31.2072    5.0524 H         1 UNK         0.2980 
    131 H131       33.1289   29.1196    6.9394 H         1 UNK         0.0545 
    132 H132       31.8192   30.3576    8.2537 H         1 UNK         0.3459 
    133 H133       30.5250   31.3586    7.6503 H         1 UNK         0.3459 
    134 H134       31.7757   28.6759    4.2535 H         1 UNK         0.0616 
    135 H135       33.4169   28.1425    4.4162 H         1 UNK         0.0616 
    136 H136       33.2821   24.9089    6.1192 H         1 UNK         0.0634 
    137 H137       34.2040   26.1417    5.3063 H         1 UNK         0.0634 
@<TRIPOS>BOND
     1    1    2 1    
     2    1   72 1    
     3    1   73 1    
     4    1   74 1    
     5    2    3 2    
     6    2    4 am   BACKBONE|DICT|INTERRES
     7    4    5 1    
     8    4   75 1    
     9    5    6 1    
    10    5   35 1    
    11    5   76 1    
    12    6    7 1    
    13    6   77 1    
    14    6   78 1    
    15    7    8 1    
    16    8    9 1    
    17    8   79 1    
    18    8   80 1    
    19    9   10 ar   
    20    9   14 ar   
    21   10   11 ar   
    22   10   81 1    
    23   11   12 ar   
    24   11   71 1    
    25   12   13 ar   
    26   12   82 1    
    27   13   14 ar   
    28   13   15 1    
    29   14   83 1    
    30   15   16 1    
    31   15   84 1    
    32   15   85 1    
    33   16   17 1    
    34   17   18 1    
    35   17   86 1    
    36   17   87 1    
    37   18   19 1    
    38   18   37 1    
    39   18   88 1    
    40   19   20 am   BACKBONE|DICT|INTERRES
    41   19   89 1    
    42   20   21 2    
    43   20   22 1    
    44   22   23 1    
    45   22   24 1    
    46   22   90 1    
    47   23   91 1    
    48   23   92 1    
    49   23   93 1    
    50   24   25 am   BACKBONE|DICT|INTERRES
    51   24   94 1    
    52   25   26 2    
    53   25   27 1    
    54   27   28 1    
    55   27   29 1    
    56   27   95 1    
    57   28   96 1    
    58   28   97 1    
    59   28   98 1    
    60   29   30 am   BACKBONE|DICT|INTERRES
    61   29   99 1    
    62   30   31 2    
    63   30   32 1    
    64   32   33 1    
    65   32   34 1    
    66   32  100 1    
    67   33  101 1    
    68   33  102 1    
    69   33  103 1    
    70   34   35 am   BACKBONE|DICT|INTERRES
    71   34  104 1    
    72   35   36 2    
    73   37   38 2    
    74   37   39 am   BACKBONE|DICT|INTERRES
    75   39   40 1    
    76   39  105 1    
    77   40   41 1    
    78   40   42 1    
    79   40  106 1    
    80   41  107 1    
    81   41  108 1    
    82   41  109 1    
    83   42   43 2    
    84   42   44 am   BACKBONE|DICT|INTERRES
    85   44   45 1    
    86   44  110 1    
    87   45   46 1    
    88   45   47 1    
    89   45  111 1    
    90   46  112 1    
    91   46  113 1    
    92   46  114 1    
    93   47   48 2    
    94   47   49 am   BACKBONE|DICT|INTERRES
    95   49   50 1    
    96   49  115 1    
    97   50   51 1    
    98   50   52 1    
    99   50  116 1    
   100   51  117 1    
   101   51  118 1    
   102   51  119 1    
   103   52   53 2    
   104   52   54 am   BACKBONE|DICT|INTERRES
   105   54   55 1    
   106   54  120 1    
   107   55   56 1    
   108   55   57 1    
   109   55  121 1    
   110   56  122 1    
   111   56  123 1    
   112   56  124 1    
   113   57   58 2    
   114   57   59 am   BACKBONE|DICT|INTERRES
   115   59   60 1    
   116   59  125 1    
   117   60   61 1    
   118   60   62 1    
   119   60  126 1    
   120   61  127 1    
   121   61  128 1    
   122   61  129 1    
   123   62   63 2    
   124   62   64 am   BACKBONE|DICT|INTERRES
   125   64   65 1    
   126   64  130 1    
   127   65   66 1    
   128   65   69 1    
   129   65  131 1    
   130   66   67 am   BACKBONE|DICT|INTERRES
   131   66   68 2    
   132   67  132 1    
   133   67  133 1    
   134   69   70 1    
   135   69  134 1    
   136   69  135 1    
   137   70   71 1    
   138   71  136 1    
   139   71  137 1    
@<TRIPOS>SUBSTRUCTURE
     1 UNK         1 GROUP             0       ****    0 ROOT    
