@<TRIPOS>MOLECULE
3R136
137   139    1
SMALL
USER_CHARGES


@<TRIPOS>ATOM
      1 CA         27.2027   22.5207    1.7835 C.3       0 UNK        -0.1979 
      2 C          27.9291   22.0979    0.5145 C.2       0 UNK         0.4864 
      3 O          28.2054   20.9109    0.3337 O.2       0 UNK        -0.5359 
      4 N          28.2415   23.0674   -0.3503 N.am      1 UNK        -0.4318 
      5 CA         28.9388   22.8985   -1.6268 C.3       1 UNK         0.0824 
      6 C6         30.2999   23.6585   -1.6524 C.3       12 UNK        -0.0944 
      7 S7         31.3687   23.3056   -0.2155 S.3       12 UNK        -0.2672 
      8 C8         31.0278   24.7945    0.7740 C.3       12 UNK         0.0333 
      9 C9         31.5867   24.6837    2.1812 C.ar      12 UNK        -0.0807 
     10 C10        32.7906   25.3110    2.5142 C.ar      12 UNK        -0.0894 
     11 C11        33.2873   25.2558    3.8203 C.ar      12 UNK        -0.0804 
     12 C12        32.5677   24.5477    4.7905 C.ar      12 UNK        -0.0824 
     13 C13        31.3542   23.9320    4.4739 C.ar      12 UNK        -0.0762 
     14 C14        30.8747   23.9890    3.1629 C.ar      12 UNK        -0.0782 
     15 C15        30.5598   23.2330    5.5655 C.3       12 UNK         0.0230 
     16 S16        29.7370   24.4448    6.6508 S.3       12 UNK        -0.2608 
     17 C17        28.2107   24.8300    5.7271 C.3       12 UNK        -0.0989 
     18 CA         28.3183   26.0142    4.7299 C.3       5 UNK         0.0716 
     19 N          27.1659   26.0048    3.8163 N.am      5 UNK        -0.4135 
     20 C          26.9768   26.8354    2.7840 C.2       4 UNK         0.5031 
     21 O          27.7212   27.7801    2.5207 O.2       4 UNK        -0.5229 
     22 CA         25.7048   26.6097    1.9476 C.3       4 UNK         0.0329 
     23 CB         24.4961   27.2717    2.6300 C.3       4 UNK        -0.2001 
     24 N          25.8314   27.1387    0.5860 N.am      4 UNK        -0.4303 
     25 C          26.7032   26.6896   -0.3249 C.2       3 UNK         0.5044 
     26 O          27.4630   25.7342   -0.1366 O.2       3 UNK        -0.5152 
     27 CA         26.7460   27.4454   -1.6607 C.3       3 UNK         0.0319 
     28 CB         27.5966   28.7203   -1.5223 C.3       3 UNK        -0.2001 
     29 N          27.3585   26.5737   -2.6591 N.am      3 UNK        -0.4354 
     30 C          26.7862   26.1185   -3.7814 C.2       2 UNK         0.4964 
     31 O          25.7049   26.5169   -4.2155 O.2       2 UNK        -0.5047 
     32 CA         27.5449   25.0073   -4.5388 C.3       2 UNK         0.0288 
     33 CB         28.3916   25.6078   -5.6731 C.3       2 UNK        -0.2113 
     34 N          28.4105   24.2194   -3.6518 N.am      2 UNK        -0.4145 
     35 C          27.9549   23.3619   -2.7242 C.2       1 UNK         0.5006 
     36 O          26.7820   22.9795   -2.6869 O.2       1 UNK        -0.5103 
     37 C          28.5472   27.3757    5.4310 C.2       5 UNK         0.5055 
     38 O          29.6950   27.7791    5.6195 O.2       5 UNK        -0.5220 
     39 N          27.4545   28.0782    5.7624 N.am      6 UNK        -0.4450 
     40 CA         27.4834   29.4236    6.3422 C.3       6 UNK         0.0367 
     41 CB         26.2161   29.6207    7.1914 C.3       6 UNK        -0.1929 
     42 C          27.5990   30.5473    5.2923 C.2       6 UNK         0.5070 
     43 O          27.9057   31.6784    5.6704 O.2       6 UNK        -0.5237 
     44 N          27.3188   30.2476    4.0162 N.am      7 UNK        -0.4739 
     45 CA         27.2990   31.2193    2.9185 C.3       7 UNK         0.0276 
     46 CB         26.1266   30.8966    1.9777 C.3       7 UNK        -0.1927 
     47 C          28.6177   31.2406    2.1320 C.2       7 UNK         0.5013 
     48 O          29.0037   32.3038    1.6445 O.2       7 UNK        -0.5193 
     49 N          29.2721   30.0773    2.0058 N.am      8 UNK        -0.4253 
     50 CA         30.5552   29.8859    1.3301 C.3       8 UNK         0.0242 
     51 CB         30.8990   28.3870    1.3299 C.3       8 UNK        -0.2000 
     52 C          31.6689   30.7027    2.0035 C.2       8 UNK         0.4948 
     53 O          31.9803   30.4526    3.1689 O.2       8 UNK        -0.5275 
     54 N          32.2542   31.6541    1.2625 N.am      9 UNK        -0.4246 
     55 CA         33.2119   32.6575    1.7521 C.3       9 UNK         0.0261 
     56 CB         33.5853   33.5996    0.5955 C.3       9 UNK        -0.1959 
     57 C          34.4842   32.1010    2.4198 C.2       9 UNK         0.5033 
     58 O          35.1085   32.8128    3.2078 O.2       9 UNK        -0.5390 
     59 N          34.8398   30.8482    2.1087 N.am      10 UNK        -0.4215 
     60 CA         35.9397   30.1119    2.7305 C.3       10 UNK         0.0240 
     61 CB         36.2558   28.8714    1.8779 C.3       10 UNK        -0.1982 
     62 C          35.6806   29.7182    4.1992 C.2       10 UNK         0.4970 
     63 O          36.6549   29.5175    4.9258 O.2       10 UNK        -0.4916 
     64 N          34.4078   29.6075    4.6082 N.am      11 UNK        -0.4279 
     65 CA         33.9918   29.2248    5.9694 C.3       11 UNK         0.1003 
     66 C          32.9836   30.2161    6.6143 C.2       11 UNK         0.5709 
     67 N          32.2474   31.0216    5.8606 N.am      11 UNK        -0.7358 
     68 O          32.8896   30.2771    7.8382 O.2       11 UNK        -0.4999 
     69 C69        33.4540   27.7697    6.0185 C.3       12 UNK        -0.0954 
     70 S70        34.7832   26.5273    5.8700 S.3       12 UNK        -0.2268 
     71 C71        34.6020   25.9658    4.1421 C.3       12 UNK         0.0203 
     72 H72        27.6921   22.0940    2.6586 H         1 UNK         0.0888 
     73 H73        27.1921   23.6041    1.8972 H         1 UNK         0.0888 
     74 H74        26.1721   22.1678    1.7612 H         1 UNK         0.0888 
     75 H75        27.9265   24.0211   -0.1707 H         1 UNK         0.3017 
     76 H76        29.1354   21.8407   -1.8124 H         1 UNK         0.0873 
     77 H77        30.8624   23.3891   -2.5482 H         1 UNK         0.0745 
     78 H78        30.1477   24.7387   -1.6983 H         1 UNK         0.0745 
     79 H79        31.4491   25.6612    0.2629 H         1 UNK         0.0705 
     80 H80        29.9522   24.9668    0.8306 H         1 UNK         0.0705 
     81 H81        33.3375   25.8537    1.7552 H         1 UNK         0.1334 
     82 H82        32.9317   24.4922    5.8067 H         1 UNK         0.1417 
     83 H83        29.9368   23.5150    2.9090 H         1 UNK         0.1562 
     84 H84        31.2374   22.6268    6.1685 H         1 UNK         0.0748 
     85 H85        29.8295   22.5409    5.1436 H         1 UNK         0.0748 
     86 H86        27.4181   25.0201    6.4534 H         1 UNK         0.0940 
     87 H87        27.9065   23.9244    5.1998 H         1 UNK         0.0940 
     88 H88        29.1944   25.8558    4.1012 H         1 UNK         0.0703 
     89 H89        26.4773   25.2857    3.9831 H         1 UNK         0.3081 
     90 H90        25.5237   25.5356    1.8726 H         1 UNK         0.0719 
     91 H91        24.6291   28.3486    2.7385 H         1 UNK         0.0809 
     92 H92        23.5800   27.1039    2.0632 H         1 UNK         0.0809 
     93 H93        24.3319   26.8629    3.6278 H         1 UNK         0.0809 
     94 H94        25.2592   27.9376    0.3570 H         1 UNK         0.2990 
     95 H95        25.7272   27.7119   -1.9497 H         1 UNK         0.0690 
     96 H96        27.6631   29.2552   -2.4699 H         1 UNK         0.0788 
     97 H97        28.6122   28.4955   -1.1934 H         1 UNK         0.0788 
     98 H98        27.1648   29.4068   -0.7932 H         1 UNK         0.0788 
     99 H99        28.2145   26.1350   -2.3542 H         1 UNK         0.2993 
    100 H100       26.8002   24.3408   -4.9801 H         1 UNK         0.0949 
    101 H101       28.8866   24.8290   -6.2537 H         1 UNK         0.0767 
    102 H102       27.7684   26.1779   -6.3638 H         1 UNK         0.0767 
    103 H103       29.1586   26.2839   -5.2927 H         1 UNK         0.0767 
    104 H104       29.3932   24.4513   -3.6601 H         1 UNK         0.3013 
    105 H105       26.5458   27.6799    5.5766 H         1 UNK         0.3121 
    106 H106       28.3485   29.5086    7.0039 H         1 UNK         0.0774 
    107 H107       26.2174   30.5996    7.6731 H         1 UNK         0.0815 
    108 H108       25.3100   29.5571    6.5876 H         1 UNK         0.0815 
    109 H109       26.1478   28.8739    7.9826 H         1 UNK         0.0815 
    110 H110       27.1779   29.2780    3.7594 H         1 UNK         0.2987 
    111 H111       27.1390   32.2237    3.3174 H         1 UNK         0.0949 
    112 H112       26.2314   29.9103    1.5265 H         1 UNK         0.0806 
    113 H113       25.1739   30.9270    2.5064 H         1 UNK         0.0806 
    114 H114       26.0688   31.6216    1.1646 H         1 UNK         0.0806 
    115 H115       28.8364   29.2408    2.3871 H         1 UNK         0.3010 
    116 H116       30.4399   30.2142    0.2953 H         1 UNK         0.0829 
    117 H117       30.1283   27.8056    0.8230 H         1 UNK         0.0813 
    118 H118       31.8426   28.1996    0.8166 H         1 UNK         0.0813 
    119 H119       30.9934   27.9949    2.3443 H         1 UNK         0.0813 
    120 H120       31.9303   31.7823    0.3143 H         1 UNK         0.3038 
    121 H121       32.6923   33.2440    2.5127 H         1 UNK         0.0769 
    122 H122       34.0729   33.0638   -0.2199 H         1 UNK         0.0811 
    123 H123       34.2726   34.3781    0.9304 H         1 UNK         0.0811 
    124 H124       32.7061   34.1018    0.1912 H         1 UNK         0.0811 
    125 H125       34.2684   30.3467    1.4450 H         1 UNK         0.3204 
    126 H126       36.8212   30.7568    2.7252 H         1 UNK         0.0748 
    127 H127       36.6132   29.1553    0.8878 H         1 UNK         0.0771 
    128 H128       37.0364   28.2643    2.3392 H         1 UNK         0.0771 
    129 H129       35.3804   28.2356    1.7452 H         1 UNK         0.0771 
    130 H130       33.6528   29.8332    3.9683 H         1 UNK         0.2980 
    131 H131       34.8599   29.2720    6.6295 H         1 UNK         0.0545 
    132 H132       32.2148   30.9057    4.8497 H         1 UNK         0.3459 
    133 H133       31.6122   31.6612    6.3085 H         1 UNK         0.3459 
    134 H134       32.6960   27.6139    5.2485 H         1 UNK         0.0616 
    135 H135       32.9553   27.5711    6.9691 H         1 UNK         0.0616 
    136 H136       34.7206   26.8336    3.4947 H         1 UNK         0.0634 
    137 H137       35.4256   25.2898    3.9105 H         1 UNK         0.0634 
@<TRIPOS>BOND
     1    1    2 1    
     2    1   72 1    
     3    1   73 1    
     4    1   74 1    
     5    2    3 2    
     6    2    4 am   BACKBONE|DICT|INTERRES
     7    4    5 1    
     8    4   75 1    
     9    5    6 1    
    10    5   35 1    
    11    5   76 1    
    12    6    7 1    
    13    6   77 1    
    14    6   78 1    
    15    7    8 1    
    16    8    9 1    
    17    8   79 1    
    18    8   80 1    
    19    9   10 ar   
    20    9   14 ar   
    21   10   11 ar   
    22   10   81 1    
    23   11   12 ar   
    24   11   71 1    
    25   12   13 ar   
    26   12   82 1    
    27   13   14 ar   
    28   13   15 1    
    29   14   83 1    
    30   15   16 1    
    31   15   84 1    
    32   15   85 1    
    33   16   17 1    
    34   17   18 1    
    35   17   86 1    
    36   17   87 1    
    37   18   19 1    
    38   18   37 1    
    39   18   88 1    
    40   19   20 am   BACKBONE|DICT|INTERRES
    41   19   89 1    
    42   20   21 2    
    43   20   22 1    
    44   22   23 1    
    45   22   24 1    
    46   22   90 1    
    47   23   91 1    
    48   23   92 1    
    49   23   93 1    
    50   24   25 am   BACKBONE|DICT|INTERRES
    51   24   94 1    
    52   25   26 2    
    53   25   27 1    
    54   27   28 1    
    55   27   29 1    
    56   27   95 1    
    57   28   96 1    
    58   28   97 1    
    59   28   98 1    
    60   29   30 am   BACKBONE|DICT|INTERRES
    61   29   99 1    
    62   30   31 2    
    63   30   32 1    
    64   32   33 1    
    65   32   34 1    
    66   32  100 1    
    67   33  101 1    
    68   33  102 1    
    69   33  103 1    
    70   34   35 am   BACKBONE|DICT|INTERRES
    71   34  104 1    
    72   35   36 2    
    73   37   38 2    
    74   37   39 am   BACKBONE|DICT|INTERRES
    75   39   40 1    
    76   39  105 1    
    77   40   41 1    
    78   40   42 1    
    79   40  106 1    
    80   41  107 1    
    81   41  108 1    
    82   41  109 1    
    83   42   43 2    
    84   42   44 am   BACKBONE|DICT|INTERRES
    85   44   45 1    
    86   44  110 1    
    87   45   46 1    
    88   45   47 1    
    89   45  111 1    
    90   46  112 1    
    91   46  113 1    
    92   46  114 1    
    93   47   48 2    
    94   47   49 am   BACKBONE|DICT|INTERRES
    95   49   50 1    
    96   49  115 1    
    97   50   51 1    
    98   50   52 1    
    99   50  116 1    
   100   51  117 1    
   101   51  118 1    
   102   51  119 1    
   103   52   53 2    
   104   52   54 am   BACKBONE|DICT|INTERRES
   105   54   55 1    
   106   54  120 1    
   107   55   56 1    
   108   55   57 1    
   109   55  121 1    
   110   56  122 1    
   111   56  123 1    
   112   56  124 1    
   113   57   58 2    
   114   57   59 am   BACKBONE|DICT|INTERRES
   115   59   60 1    
   116   59  125 1    
   117   60   61 1    
   118   60   62 1    
   119   60  126 1    
   120   61  127 1    
   121   61  128 1    
   122   61  129 1    
   123   62   63 2    
   124   62   64 am   BACKBONE|DICT|INTERRES
   125   64   65 1    
   126   64  130 1    
   127   65   66 1    
   128   65   69 1    
   129   65  131 1    
   130   66   67 am   BACKBONE|DICT|INTERRES
   131   66   68 2    
   132   67  132 1    
   133   67  133 1    
   134   69   70 1    
   135   69  134 1    
   136   69  135 1    
   137   70   71 1    
   138   71  136 1    
   139   71  137 1    
@<TRIPOS>SUBSTRUCTURE
     1 UNK         1 GROUP             0       ****    0 ROOT    
