@<TRIPOS>MOLECULE
3R136
137   139    1
SMALL
USER_CHARGES


@<TRIPOS>ATOM
      1 CA         27.4910   19.7222   -3.2138 C.3       0 UNK        -0.1979 
      2 C          27.6407   20.7707   -2.1211 C.2       0 UNK         0.4864 
      3 O          26.9271   21.7752   -2.1352 O.2       0 UNK        -0.5359 
      4 N          28.5676   20.5490   -1.1799 N.am      1 UNK        -0.4318 
      5 CA         28.8261   21.4275   -0.0325 C.3       1 UNK         0.0824 
      6 C6         30.1653   21.0706    0.6613 C.3       12 UNK        -0.0944 
      7 S7         31.5972   21.2391   -0.4559 S.3       12 UNK        -0.2672 
      8 C8         32.8849   21.8749    0.6688 C.3       12 UNK         0.0333 
      9 C9         32.6565   23.3263    1.0747 C.ar      12 UNK        -0.0807 
     10 C10        32.5352   23.6746    2.4255 C.ar      12 UNK        -0.0894 
     11 C11        32.3576   25.0101    2.8048 C.ar      12 UNK        -0.0804 
     12 C12        32.2828   25.9929    1.8135 C.ar      12 UNK        -0.0824 
     13 C13        32.4087   25.6622    0.4622 C.ar      12 UNK        -0.0762 
     14 C14        32.6034   24.3274    0.0993 C.ar      12 UNK        -0.0782 
     15 C15        32.3560   26.7532   -0.5986 C.3       12 UNK         0.0230 
     16 S16        30.8797   26.6518   -1.6623 S.3       12 UNK        -0.2608 
     17 C17        29.5018   26.6954   -0.4696 C.3       12 UNK        -0.0989 
     18 CA         29.1160   28.1310   -0.0160 C.3       5 UNK         0.0716 
     19 N          27.6636   28.3125   -0.0068 N.am      5 UNK        -0.4135 
     20 C          26.9715   29.3933    0.3724 C.2       4 UNK         0.5031 
     21 O          27.4944   30.4444    0.7460 O.2       4 UNK        -0.5229 
     22 CA         25.4329   29.2703    0.3824 C.3       4 UNK         0.0329 
     23 CB         24.8355   29.6872   -0.9752 C.3       4 UNK        -0.2001 
     24 N          24.9292   27.9550    0.8231 N.am      4 UNK        -0.4303 
     25 C          25.0682   26.7610    0.2267 C.2       3 UNK         0.5044 
     26 O          25.5909   26.5949   -0.8776 O.2       3 UNK        -0.5152 
     27 CA         24.6405   25.5295    1.0429 C.3       3 UNK         0.0319 
     28 CB         23.4501   24.8198    0.3782 C.3       3 UNK        -0.2001 
     29 N          25.7473   24.5776    1.2046 N.am      3 UNK        -0.4354 
     30 C          26.9374   24.8598    1.7602 C.2       2 UNK         0.4964 
     31 O          27.2238   25.9675    2.2168 O.2       2 UNK        -0.5047 
     32 CA         27.9864   23.7339    1.8260 C.3       2 UNK         0.0288 
     33 CB         28.8325   23.8299    3.1084 C.3       2 UNK        -0.2113 
     34 N          27.3553   22.4109    1.7628 N.am      2 UNK        -0.4145 
     35 C          27.6547   21.3605    0.9828 C.2       1 UNK         0.5006 
     36 O          27.0226   20.3072    1.0872 O.2       1 UNK        -0.5103 
     37 C          29.7581   28.4760    1.3422 C.2       5 UNK         0.5055 
     38 O          30.7547   29.1969    1.3733 O.2       5 UNK        -0.5220 
     39 N          29.1605   27.9847    2.4390 N.am      6 UNK        -0.4450 
     40 CA         29.5982   28.2295    3.8149 C.3       6 UNK         0.0367 
     41 CB         28.7167   27.4387    4.7944 C.3       6 UNK        -0.1929 
     42 C          29.6112   29.7129    4.2038 C.2       6 UNK         0.5070 
     43 O          30.5372   30.1414    4.8903 O.2       6 UNK        -0.5237 
     44 N          28.6054   30.4688    3.7448 N.am      7 UNK        -0.4739 
     45 CA         28.5076   31.9134    3.9540 C.3       7 UNK         0.0276 
     46 CB         27.0667   32.3805    3.6918 C.3       7 UNK        -0.1927 
     47 C          29.5045   32.6875    3.0788 C.2       7 UNK         0.5013 
     48 O          30.0991   33.6531    3.5573 O.2       7 UNK        -0.5193 
     49 N          29.6837   32.2394    1.8276 N.am      8 UNK        -0.4253 
     50 CA         30.6276   32.8117    0.8649 C.3       8 UNK         0.0242 
     51 CB         30.3693   32.2152   -0.5287 C.3       8 UNK        -0.2000 
     52 C          32.0964   32.6217    1.2818 C.2       8 UNK         0.4948 
     53 O          32.8689   33.5794    1.2262 O.2       8 UNK        -0.5275 
     54 N          32.4523   31.3992    1.6991 N.am      9 UNK        -0.4246 
     55 CA         33.7964   31.0381    2.1590 C.3       9 UNK         0.0261 
     56 CB         33.9888   29.5225    2.0007 C.3       9 UNK        -0.1959 
     57 C          34.0845   31.4542    3.6119 C.2       9 UNK         0.5033 
     58 O          35.2563   31.5011    3.9890 O.2       9 UNK        -0.5390 
     59 N          33.0292   31.7229    4.3958 N.am      10 UNK        -0.4215 
     60 CA         33.0342   32.0023    5.8364 C.3       10 UNK         0.0240 
     61 CB         33.7743   33.3202    6.1527 C.3       10 UNK        -0.1982 
     62 C          33.5465   30.7958    6.6475 C.2       10 UNK         0.4970 
     63 O          34.4672   30.9358    7.4557 O.2       10 UNK        -0.4916 
     64 N          32.9423   29.6265    6.3980 N.am      11 UNK        -0.4279 
     65 CA         33.2128   28.3700    7.1138 C.3       11 UNK         0.1003 
     66 C          32.7860   28.4403    8.6063 C.2       11 UNK         0.5709 
     67 N          33.5160   27.7757    9.4919 N.am      11 UNK        -0.7358 
     68 O          31.7805   29.0534    8.9616 O.2       11 UNK        -0.4999 
     69 C69        32.5476   27.1524    6.4192 C.3       12 UNK        -0.0954 
     70 S70        33.2288   26.8177    4.7633 S.3       12 UNK        -0.2268 
     71 C71        32.2114   25.3813    4.2788 C.3       12 UNK         0.0203 
     72 H72        26.4817   19.3115   -3.2034 H         1 UNK         0.0888 
     73 H73        27.6671   20.1711   -4.1911 H         1 UNK         0.0888 
     74 H74        28.1937   18.8987   -3.0876 H         1 UNK         0.0888 
     75 H75        29.1195   19.7041   -1.2122 H         1 UNK         0.3017 
     76 H76        28.9007   22.4309   -0.4493 H         1 UNK         0.0873 
     77 H77        30.3277   21.7140    1.5253 H         1 UNK         0.0745 
     78 H78        30.1448   20.0483    1.0442 H         1 UNK         0.0745 
     79 H79        32.9449   21.2261    1.5442 H         1 UNK         0.0705 
     80 H80        33.8513   21.8018    0.1681 H         1 UNK         0.0705 
     81 H81        32.5836   22.9051    3.1838 H         1 UNK         0.1334 
     82 H82        32.1362   27.0234    2.0991 H         1 UNK         0.1417 
     83 H83        32.7057   24.0661   -0.9455 H         1 UNK         0.1562 
     84 H84        33.2451   26.6815   -1.2265 H         1 UNK         0.0748 
     85 H85        32.3909   27.7422   -0.1427 H         1 UNK         0.0748 
     86 H86        29.7101   26.0315    0.3710 H         1 UNK         0.0940 
     87 H87        28.6624   26.2252   -0.9852 H         1 UNK         0.0940 
     88 H88        29.4942   28.8516   -0.7436 H         1 UNK         0.0703 
     89 H89        27.1083   27.5237   -0.3268 H         1 UNK         0.3081 
     90 H90        25.0755   29.9838    1.1268 H         1 UNK         0.0719 
     91 H91        25.1304   30.7060   -1.2307 H         1 UNK         0.0809 
     92 H92        25.1705   29.0424   -1.7881 H         1 UNK         0.0809 
     93 H93        23.7461   29.6613   -0.9535 H         1 UNK         0.0809 
     94 H94        24.5189   27.9566    1.7472 H         1 UNK         0.2990 
     95 H95        24.3352   25.8517    2.0407 H         1 UNK         0.0690 
     96 H96        22.6065   25.5012    0.2590 H         1 UNK         0.0788 
     97 H97        23.1030   23.9781    0.9778 H         1 UNK         0.0788 
     98 H98        23.7073   24.4434   -0.6131 H         1 UNK         0.0788 
     99 H99        25.6087   23.6586    0.8104 H         1 UNK         0.2993 
    100 H100       28.6514   23.9106    0.9843 H         1 UNK         0.0949 
    101 H101       29.5216   22.9934    3.2121 H         1 UNK         0.0767 
    102 H102       29.4348   24.7375    3.0959 H         1 UNK         0.0767 
    103 H103       28.2092   23.8572    4.0031 H         1 UNK         0.0767 
    104 H104       26.5901   22.2880    2.4115 H         1 UNK         0.3013 
    105 H105       28.3602   27.3632    2.3232 H         1 UNK         0.3121 
    106 H106       30.6229   27.8695    3.8985 H         1 UNK         0.0774 
    107 H107       28.7934   26.3661    4.6286 H         1 UNK         0.0815 
    108 H108       29.0121   27.6254    5.8277 H         1 UNK         0.0815 
    109 H109       27.6653   27.7133    4.7010 H         1 UNK         0.0815 
    110 H110       27.9150   30.0436    3.1421 H         1 UNK         0.2987 
    111 H111       28.7483   32.1266    4.9983 H         1 UNK         0.0949 
    112 H112       26.7595   32.1978    2.6617 H         1 UNK         0.0806 
    113 H113       26.3598   31.8728    4.3481 H         1 UNK         0.0806 
    114 H114       26.9666   33.4511    3.8753 H         1 UNK         0.0806 
    115 H115       29.1190   31.4574    1.5106 H         1 UNK         0.3010 
    116 H116       30.4351   33.8855    0.8131 H         1 UNK         0.0829 
    117 H117       30.5404   31.1388   -0.5479 H         1 UNK         0.0813 
    118 H118       29.3441   32.3952   -0.8532 H         1 UNK         0.0813 
    119 H119       31.0294   32.6633   -1.2725 H         1 UNK         0.0813 
    120 H120       31.7639   30.6464    1.6602 H         1 UNK         0.3038 
    121 H121       34.5295   31.5402    1.5239 H         1 UNK         0.0769 
    122 H122       33.2703   28.9688    2.6045 H         1 UNK         0.0811 
    123 H123       34.9861   29.2152    2.3186 H         1 UNK         0.0811 
    124 H124       33.8709   29.2148    0.9626 H         1 UNK         0.0811 
    125 H125       32.1097   31.6021    3.9912 H         1 UNK         0.3204 
    126 H126       31.9905   32.1418    6.1225 H         1 UNK         0.0748 
    127 H127       33.6717   33.5791    7.2071 H         1 UNK         0.0771 
    128 H128       34.8413   33.2530    5.9389 H         1 UNK         0.0771 
    129 H129       33.3677   34.1497    5.5740 H         1 UNK         0.0771 
    130 H130       32.1479   29.6272    5.7647 H         1 UNK         0.2980 
    131 H131       34.2940   28.2191    7.0905 H         1 UNK         0.0545 
    132 H132       34.3352   27.2594    9.2108 H         1 UNK         0.3459 
    133 H133       33.2464   27.7966   10.4629 H         1 UNK         0.3459 
    134 H134       31.4702   27.3041    6.3359 H         1 UNK         0.0616 
    135 H135       32.6868   26.2481    7.0149 H         1 UNK         0.0616 
    136 H136       31.1634   25.5965    4.4829 H         1 UNK         0.0634 
    137 H137       32.4832   24.5381    4.9154 H         1 UNK         0.0634 
@<TRIPOS>BOND
     1    1    2 1    
     2    1   72 1    
     3    1   73 1    
     4    1   74 1    
     5    2    3 2    
     6    2    4 am   BACKBONE|DICT|INTERRES
     7    4    5 1    
     8    4   75 1    
     9    5    6 1    
    10    5   35 1    
    11    5   76 1    
    12    6    7 1    
    13    6   77 1    
    14    6   78 1    
    15    7    8 1    
    16    8    9 1    
    17    8   79 1    
    18    8   80 1    
    19    9   10 ar   
    20    9   14 ar   
    21   10   11 ar   
    22   10   81 1    
    23   11   12 ar   
    24   11   71 1    
    25   12   13 ar   
    26   12   82 1    
    27   13   14 ar   
    28   13   15 1    
    29   14   83 1    
    30   15   16 1    
    31   15   84 1    
    32   15   85 1    
    33   16   17 1    
    34   17   18 1    
    35   17   86 1    
    36   17   87 1    
    37   18   19 1    
    38   18   37 1    
    39   18   88 1    
    40   19   20 am   BACKBONE|DICT|INTERRES
    41   19   89 1    
    42   20   21 2    
    43   20   22 1    
    44   22   23 1    
    45   22   24 1    
    46   22   90 1    
    47   23   91 1    
    48   23   92 1    
    49   23   93 1    
    50   24   25 am   BACKBONE|DICT|INTERRES
    51   24   94 1    
    52   25   26 2    
    53   25   27 1    
    54   27   28 1    
    55   27   29 1    
    56   27   95 1    
    57   28   96 1    
    58   28   97 1    
    59   28   98 1    
    60   29   30 am   BACKBONE|DICT|INTERRES
    61   29   99 1    
    62   30   31 2    
    63   30   32 1    
    64   32   33 1    
    65   32   34 1    
    66   32  100 1    
    67   33  101 1    
    68   33  102 1    
    69   33  103 1    
    70   34   35 am   BACKBONE|DICT|INTERRES
    71   34  104 1    
    72   35   36 2    
    73   37   38 2    
    74   37   39 am   BACKBONE|DICT|INTERRES
    75   39   40 1    
    76   39  105 1    
    77   40   41 1    
    78   40   42 1    
    79   40  106 1    
    80   41  107 1    
    81   41  108 1    
    82   41  109 1    
    83   42   43 2    
    84   42   44 am   BACKBONE|DICT|INTERRES
    85   44   45 1    
    86   44  110 1    
    87   45   46 1    
    88   45   47 1    
    89   45  111 1    
    90   46  112 1    
    91   46  113 1    
    92   46  114 1    
    93   47   48 2    
    94   47   49 am   BACKBONE|DICT|INTERRES
    95   49   50 1    
    96   49  115 1    
    97   50   51 1    
    98   50   52 1    
    99   50  116 1    
   100   51  117 1    
   101   51  118 1    
   102   51  119 1    
   103   52   53 2    
   104   52   54 am   BACKBONE|DICT|INTERRES
   105   54   55 1    
   106   54  120 1    
   107   55   56 1    
   108   55   57 1    
   109   55  121 1    
   110   56  122 1    
   111   56  123 1    
   112   56  124 1    
   113   57   58 2    
   114   57   59 am   BACKBONE|DICT|INTERRES
   115   59   60 1    
   116   59  125 1    
   117   60   61 1    
   118   60   62 1    
   119   60  126 1    
   120   61  127 1    
   121   61  128 1    
   122   61  129 1    
   123   62   63 2    
   124   62   64 am   BACKBONE|DICT|INTERRES
   125   64   65 1    
   126   64  130 1    
   127   65   66 1    
   128   65   69 1    
   129   65  131 1    
   130   66   67 am   BACKBONE|DICT|INTERRES
   131   66   68 2    
   132   67  132 1    
   133   67  133 1    
   134   69   70 1    
   135   69  134 1    
   136   69  135 1    
   137   70   71 1    
   138   71  136 1    
   139   71  137 1    
@<TRIPOS>SUBSTRUCTURE
     1 UNK         1 GROUP             0       ****    0 ROOT    
