@<TRIPOS>MOLECULE
3R136
137   139    1
SMALL
USER_CHARGES


@<TRIPOS>ATOM
      1 CA         32.6520   20.2736    4.4943 C.3       0 UNK        -0.1979 
      2 C          31.3424   19.9816    3.7765 C.2       0 UNK         0.4864 
      3 O          30.5439   19.1784    4.2620 O.2       0 UNK        -0.5359 
      4 N          31.1215   20.6192    2.6202 N.am      1 UNK        -0.4318 
      5 CA         29.8929   20.5284    1.8267 C.3       1 UNK         0.0824 
      6 C6         30.0954   21.0340    0.3717 C.3       12 UNK        -0.0944 
      7 S7         31.0376   22.5938    0.2044 S.3       12 UNK        -0.2672 
      8 C8         29.6975   23.8176    0.1088 C.3       12 UNK         0.0333 
      9 C9         30.2200   25.1987   -0.2579 C.ar      12 UNK        -0.0807 
     10 C10        31.0009   25.9256    0.6468 C.ar      12 UNK        -0.0894 
     11 C11        31.4565   27.2074    0.3209 C.ar      12 UNK        -0.0804 
     12 C12        31.1261   27.7598   -0.9194 C.ar      12 UNK        -0.0824 
     13 C13        30.3361   27.0476   -1.8262 C.ar      12 UNK        -0.0762 
     14 C14        29.8927   25.7655   -1.4928 C.ar      12 UNK        -0.0782 
     15 C15        29.9591   27.6579   -3.1679 C.3       12 UNK         0.0230 
     16 S16        28.2439   28.2728   -3.1777 S.3       12 UNK        -0.2608 
     17 C17        28.3405   29.6774   -2.0165 C.3       12 UNK        -0.0989 
     18 CA         27.3869   29.5360   -0.8018 C.3       5 UNK         0.0716 
     19 N          27.5816   28.2795   -0.0652 N.am      5 UNK        -0.4135 
     20 C          26.6458   27.7096    0.7057 C.2       4 UNK         0.5031 
     21 O          25.4985   28.1425    0.8346 O.2       4 UNK        -0.5229 
     22 CA         27.0772   26.4748    1.5131 C.3       4 UNK         0.0329 
     23 CB         26.9511   26.7504    3.0211 C.3       4 UNK        -0.2001 
     24 N          26.2987   25.2794    1.1929 N.am      4 UNK        -0.4303 
     25 C          26.1910   24.6937   -0.0053 C.2       3 UNK         0.5044 
     26 O          26.7388   25.1114   -1.0255 O.2       3 UNK        -0.5152 
     27 CA         25.3667   23.3912   -0.0521 C.3       3 UNK         0.0319 
     28 CB         25.3057   22.7813   -1.4655 C.3       3 UNK        -0.2001 
     29 N          25.8816   22.3767    0.8744 N.am      3 UNK        -0.4354 
     30 C          25.6687   22.3478    2.1981 C.2       2 UNK         0.4964 
     31 O          25.0234   23.2069    2.8004 O.2       2 UNK        -0.5047 
     32 CA         26.2735   21.1729    2.9849 C.3       2 UNK         0.0288 
     33 CB         25.2514   20.0308    3.1080 C.3       2 UNK        -0.2113 
     34 N          27.5093   20.6537    2.3906 N.am      2 UNK        -0.4145 
     35 C          28.7112   21.2315    2.5290 C.2       1 UNK         0.5006 
     36 O          28.9002   22.2723    3.1641 O.2       1 UNK        -0.5103 
     37 C          27.5273   30.7739    0.1119 C.2       5 UNK         0.5055 
     38 O          27.1062   31.8588   -0.2914 O.2       5 UNK        -0.5220 
     39 N          28.1472   30.6018    1.2929 N.am      6 UNK        -0.4450 
     40 CA         28.5444   31.6430    2.2518 C.3       6 UNK         0.0367 
     41 CB         27.3156   32.3548    2.8553 C.3       6 UNK        -0.1929 
     42 C          29.5887   32.6145    1.6644 C.2       6 UNK         0.5070 
     43 O          29.5535   33.8142    1.9414 O.2       6 UNK        -0.5237 
     44 N          30.4998   32.0670    0.8483 N.am      7 UNK        -0.4739 
     45 CA         31.5588   32.7995    0.1511 C.3       7 UNK         0.0276 
     46 CB         32.0229   31.9622   -1.0525 C.3       7 UNK        -0.1927 
     47 C          32.7578   33.1514    1.0495 C.2       7 UNK         0.5013 
     48 O          33.5372   34.0336    0.6866 O.2       7 UNK        -0.5193 
     49 N          32.9000   32.4579    2.1842 N.am      8 UNK        -0.4253 
     50 CA         33.9745   32.6266    3.1559 C.3       8 UNK         0.0242 
     51 CB         35.1863   31.7749    2.7324 C.3       8 UNK        -0.2000 
     52 C          33.4634   32.1977    4.5334 C.2       8 UNK         0.4948 
     53 O          32.4538   31.4938    4.6210 O.2       8 UNK        -0.5275 
     54 N          34.2025   32.5686    5.5878 N.am      9 UNK        -0.4246 
     55 CA         33.9126   32.2326    6.9906 C.3       9 UNK         0.0261 
     56 CB         34.9359   32.9354    7.8979 C.3       9 UNK        -0.1959 
     57 C          33.8684   30.7214    7.2993 C.2       9 UNK         0.5033 
     58 O          33.2846   30.3297    8.3104 O.2       9 UNK        -0.5390 
     59 N          34.4594   29.9031    6.4178 N.am      10 UNK        -0.4215 
     60 CA         34.3880   28.4420    6.4313 C.3       10 UNK         0.0240 
     61 CB         35.4200   27.8865    5.4354 C.3       10 UNK        -0.1982 
     62 C          32.9873   27.8795    6.1148 C.2       10 UNK         0.4970 
     63 O          32.7309   26.7258    6.4626 O.2       10 UNK        -0.4916 
     64 N          32.1213   28.6706    5.4660 N.am      11 UNK        -0.4279 
     65 CA         30.7578   28.2781    5.0779 C.3       11 UNK         0.1003 
     66 C          29.6694   29.3365    5.4068 C.2       11 UNK         0.5709 
     67 N          30.0039   30.6017    5.6252 N.am      11 UNK        -0.7358 
     68 O          28.4930   28.9948    5.4917 O.2       11 UNK        -0.4999 
     69 C69        30.6927   27.7888    3.6073 C.3       12 UNK        -0.0954 
     70 S70        31.2650   29.0238    2.3873 S.3       12 UNK        -0.2268 
     71 C71        32.3052   28.0028    1.3015 C.3       12 UNK         0.0203 
     72 H72        32.4534   20.6845    5.4837 H         1 UNK         0.0888 
     73 H73        33.2271   19.3560    4.6147 H         1 UNK         0.0888 
     74 H74        33.2656   20.9890    3.9471 H         1 UNK         0.0888 
     75 H75        31.7946   21.2914    2.2795 H         1 UNK         0.3017 
     76 H76        29.6387   19.4676    1.7639 H         1 UNK         0.0873 
     77 H77        30.6578   20.2781   -0.1787 H         1 UNK         0.0745 
     78 H78        29.1442   21.1144   -0.1580 H         1 UNK         0.0745 
     79 H79        28.9618   23.4819   -0.6233 H         1 UNK         0.0705 
     80 H80        29.1801   23.8743    1.0665 H         1 UNK         0.0705 
     81 H81        31.2524   25.4886    1.6033 H         1 UNK         0.1334 
     82 H82        31.4821   28.7478   -1.1762 H         1 UNK         0.1417 
     83 H83        29.2728   25.2179   -2.1905 H         1 UNK         0.1562 
     84 H84        30.0670   26.9055   -3.9506 H         1 UNK         0.0748 
     85 H85        30.6389   28.4695   -3.4323 H         1 UNK         0.0748 
     86 H86        28.0919   30.5778   -2.5824 H         1 UNK         0.0940 
     87 H87        29.3702   29.8180   -1.6870 H         1 UNK         0.0940 
     88 H88        26.3650   29.5448   -1.1878 H         1 UNK         0.0703 
     89 H89        28.4736   27.8194   -0.1873 H         1 UNK         0.3081 
     90 H90        28.1239   26.2614    1.2947 H         1 UNK         0.0719 
     91 H91        25.9075   26.8000    3.3344 H         1 UNK         0.0809 
     92 H92        27.4411   25.9741    3.6093 H         1 UNK         0.0809 
     93 H93        27.4060   27.7036    3.2914 H         1 UNK         0.0809 
     94 H94        25.8068   24.8373    1.9627 H         1 UNK         0.2990 
     95 H95        24.3463   23.6480    0.2408 H         1 UNK         0.0690 
     96 H96        24.6727   21.8940   -1.4885 H         1 UNK         0.0788 
     97 H97        26.2952   22.4987   -1.8272 H         1 UNK         0.0788 
     98 H98        24.8883   23.4922   -2.1801 H         1 UNK         0.0788 
     99 H99        26.4383   21.6408    0.4666 H         1 UNK         0.2993 
    100 H100       26.4969   21.5361    3.9910 H         1 UNK         0.0949 
    101 H101       25.6351   19.2207    3.7286 H         1 UNK         0.0767 
    102 H102       24.3284   20.3819    3.5720 H         1 UNK         0.0767 
    103 H103       24.9885   19.6140    2.1348 H         1 UNK         0.0767 
    104 H104       27.4341   19.7918    1.8688 H         1 UNK         0.3013 
    105 H105       28.4511   29.6669    1.5230 H         1 UNK         0.3121 
    106 H106       29.0495   31.1257    3.0666 H         1 UNK         0.0774 
    107 H107       27.6124   33.0234    3.6642 H         1 UNK         0.0815 
    108 H108       26.7889   32.9572    2.1149 H         1 UNK         0.0815 
    109 H109       26.6084   31.6379    3.2721 H         1 UNK         0.0815 
    110 H110       30.4684   31.0687    0.7029 H         1 UNK         0.2987 
    111 H111       31.1439   33.7386   -0.2220 H         1 UNK         0.0949 
    112 H112       32.4603   31.0135   -0.7393 H         1 UNK         0.0806 
    113 H113       31.1975   31.7481   -1.7316 H         1 UNK         0.0806 
    114 H114       32.7819   32.4947   -1.6276 H         1 UNK         0.0806 
    115 H115       32.1907   31.7873    2.4539 H         1 UNK         0.3010 
    116 H116       34.2581   33.6800    3.2085 H         1 UNK         0.0829 
    117 H117       35.5579   32.0756    1.7526 H         1 UNK         0.0813 
    118 H118       36.0141   31.8820    3.4341 H         1 UNK         0.0813 
    119 H119       34.9333   30.7148    2.6801 H         1 UNK         0.0813 
    120 H120       35.0235   33.1350    5.4256 H         1 UNK         0.3038 
    121 H121       32.9219   32.6303    7.2208 H         1 UNK         0.0769 
    122 H122       35.9536   32.5994    7.6949 H         1 UNK         0.0811 
    123 H123       34.7301   32.7326    8.9500 H         1 UNK         0.0811 
    124 H124       34.9057   34.0175    7.7687 H         1 UNK         0.0811 
    125 H125       34.9266   30.3251    5.6295 H         1 UNK         0.3204 
    126 H126       34.6573   28.1013    7.4333 H         1 UNK         0.0748 
    127 H127       36.4300   28.2121    5.6855 H         1 UNK         0.0771 
    128 H128       35.4230   26.7955    5.4436 H         1 UNK         0.0771 
    129 H129       35.2063   28.2033    4.4135 H         1 UNK         0.0771 
    130 H130       32.3933   29.6124    5.2063 H         1 UNK         0.2980 
    131 H131       30.4675   27.4257    5.6949 H         1 UNK         0.0545 
    132 H132       29.2822   31.2598    5.8681 H         1 UNK         0.3459 
    133 H133       30.9447   30.9342    5.4328 H         1 UNK         0.3459 
    134 H134       31.3031   26.8899    3.5197 H         1 UNK         0.0616 
    135 H135       29.6841   27.4785    3.3405 H         1 UNK         0.0616 
    136 H136       32.9858   28.6586    0.7563 H         1 UNK         0.0634 
    137 H137       32.9364   27.3408    1.8962 H         1 UNK         0.0634 
@<TRIPOS>BOND
     1    1    2 1    
     2    1   72 1    
     3    1   73 1    
     4    1   74 1    
     5    2    3 2    
     6    2    4 am   BACKBONE|DICT|INTERRES
     7    4    5 1    
     8    4   75 1    
     9    5    6 1    
    10    5   35 1    
    11    5   76 1    
    12    6    7 1    
    13    6   77 1    
    14    6   78 1    
    15    7    8 1    
    16    8    9 1    
    17    8   79 1    
    18    8   80 1    
    19    9   10 ar   
    20    9   14 ar   
    21   10   11 ar   
    22   10   81 1    
    23   11   12 ar   
    24   11   71 1    
    25   12   13 ar   
    26   12   82 1    
    27   13   14 ar   
    28   13   15 1    
    29   14   83 1    
    30   15   16 1    
    31   15   84 1    
    32   15   85 1    
    33   16   17 1    
    34   17   18 1    
    35   17   86 1    
    36   17   87 1    
    37   18   19 1    
    38   18   37 1    
    39   18   88 1    
    40   19   20 am   BACKBONE|DICT|INTERRES
    41   19   89 1    
    42   20   21 2    
    43   20   22 1    
    44   22   23 1    
    45   22   24 1    
    46   22   90 1    
    47   23   91 1    
    48   23   92 1    
    49   23   93 1    
    50   24   25 am   BACKBONE|DICT|INTERRES
    51   24   94 1    
    52   25   26 2    
    53   25   27 1    
    54   27   28 1    
    55   27   29 1    
    56   27   95 1    
    57   28   96 1    
    58   28   97 1    
    59   28   98 1    
    60   29   30 am   BACKBONE|DICT|INTERRES
    61   29   99 1    
    62   30   31 2    
    63   30   32 1    
    64   32   33 1    
    65   32   34 1    
    66   32  100 1    
    67   33  101 1    
    68   33  102 1    
    69   33  103 1    
    70   34   35 am   BACKBONE|DICT|INTERRES
    71   34  104 1    
    72   35   36 2    
    73   37   38 2    
    74   37   39 am   BACKBONE|DICT|INTERRES
    75   39   40 1    
    76   39  105 1    
    77   40   41 1    
    78   40   42 1    
    79   40  106 1    
    80   41  107 1    
    81   41  108 1    
    82   41  109 1    
    83   42   43 2    
    84   42   44 am   BACKBONE|DICT|INTERRES
    85   44   45 1    
    86   44  110 1    
    87   45   46 1    
    88   45   47 1    
    89   45  111 1    
    90   46  112 1    
    91   46  113 1    
    92   46  114 1    
    93   47   48 2    
    94   47   49 am   BACKBONE|DICT|INTERRES
    95   49   50 1    
    96   49  115 1    
    97   50   51 1    
    98   50   52 1    
    99   50  116 1    
   100   51  117 1    
   101   51  118 1    
   102   51  119 1    
   103   52   53 2    
   104   52   54 am   BACKBONE|DICT|INTERRES
   105   54   55 1    
   106   54  120 1    
   107   55   56 1    
   108   55   57 1    
   109   55  121 1    
   110   56  122 1    
   111   56  123 1    
   112   56  124 1    
   113   57   58 2    
   114   57   59 am   BACKBONE|DICT|INTERRES
   115   59   60 1    
   116   59  125 1    
   117   60   61 1    
   118   60   62 1    
   119   60  126 1    
   120   61  127 1    
   121   61  128 1    
   122   61  129 1    
   123   62   63 2    
   124   62   64 am   BACKBONE|DICT|INTERRES
   125   64   65 1    
   126   64  130 1    
   127   65   66 1    
   128   65   69 1    
   129   65  131 1    
   130   66   67 am   BACKBONE|DICT|INTERRES
   131   66   68 2    
   132   67  132 1    
   133   67  133 1    
   134   69   70 1    
   135   69  134 1    
   136   69  135 1    
   137   70   71 1    
   138   71  136 1    
   139   71  137 1    
@<TRIPOS>SUBSTRUCTURE
     1 UNK         1 GROUP             0       ****    0 ROOT    
