@<TRIPOS>MOLECULE
3R136
137   139    1
SMALL
USER_CHARGES


@<TRIPOS>ATOM
      1 CA         28.0337   22.2610   -3.4025 C.3       0 UNK        -0.1979 
      2 C          28.2159   23.2030   -2.2223 C.2       0 UNK         0.4864 
      3 O          27.4431   23.1365   -1.2652 O.2       0 UNK        -0.5359 
      4 N          29.2157   24.0962   -2.2959 N.am      1 UNK        -0.4318 
      5 CA         29.6351   25.0378   -1.2397 C.3       1 UNK         0.0824 
      6 C6         30.3064   24.3204   -0.0402 C.3       12 UNK        -0.0944 
      7 S7         31.7836   23.3862   -0.5658 S.3       12 UNK        -0.2672 
      8 C8         32.0190   22.2662    0.8496 C.3       12 UNK         0.0333 
      9 C9         32.1390   23.0103    2.1737 C.ar      12 UNK        -0.0807 
     10 C10        33.0737   24.0407    2.3300 C.ar      12 UNK        -0.0894 
     11 C11        33.1742   24.7267    3.5423 C.ar      12 UNK        -0.0804 
     12 C12        32.3541   24.3587    4.6107 C.ar      12 UNK        -0.0824 
     13 C13        31.4099   23.3389    4.4655 C.ar      12 UNK        -0.0762 
     14 C14        31.3080   22.6663    3.2450 C.ar      12 UNK        -0.0782 
     15 C15        30.4983   22.9686    5.6272 C.3       12 UNK         0.0230 
     16 S16        28.8246   23.6655    5.4365 S.3       12 UNK        -0.2608 
     17 C17        29.1652   25.4581    5.4000 C.3       12 UNK        -0.0989 
     18 CA         28.8544   26.0697    4.0060 C.3       5 UNK         0.0716 
     19 N          27.4241   26.0610    3.6603 N.am      5 UNK        -0.4135 
     20 C          26.4379   26.6842    4.3265 C.2       4 UNK         0.5031 
     21 O          26.6067   27.3002    5.3798 O.2       4 UNK        -0.5229 
     22 CA         25.0170   26.6512    3.7290 C.3       4 UNK         0.0329 
     23 CB         24.4271   28.0710    3.6429 C.3       4 UNK        -0.2001 
     24 N          24.9334   26.0467    2.4002 N.am      4 UNK        -0.4303 
     25 C          24.8620   24.7429    2.1167 C.2       3 UNK         0.5044 
     26 O          24.9156   23.8586    2.9709 O.2       3 UNK        -0.5152 
     27 CA         24.7150   24.3517    0.6322 C.3       3 UNK         0.0319 
     28 CB         23.2302   24.2791    0.2269 C.3       3 UNK        -0.2001 
     29 N          25.4882   25.1742   -0.3135 N.am      3 UNK        -0.4354 
     30 C          25.3671   26.4813   -0.6082 C.2       2 UNK         0.4964 
     31 O          24.5123   27.2118   -0.1054 O.2       2 UNK        -0.5047 
     32 CA         26.3737   27.0870   -1.6110 C.3       2 UNK         0.0288 
     33 CB         26.6939   28.5667   -1.3155 C.3       2 UNK        -0.2113 
     34 N          27.6133   26.3161   -1.7537 N.am      2 UNK        -0.4145 
     35 C          28.5078   26.0024   -0.8013 C.2       1 UNK         0.5006 
     36 O          28.4472   26.4051    0.3653 O.2       1 UNK        -0.5103 
     37 C          29.4211   27.4916    3.8211 C.2       5 UNK         0.5055 
     38 O          29.9129   28.1113    4.7695 O.2       5 UNK        -0.5220 
     39 N          29.2911   27.9953    2.5890 N.am      6 UNK        -0.4450 
     40 CA         29.5950   29.3691    2.2072 C.3       6 UNK         0.0367 
     41 CB         28.2882   30.1855    2.1892 C.3       6 UNK        -0.1929 
     42 C          30.3764   29.4094    0.8870 C.2       6 UNK         0.5070 
     43 O          30.1373   30.2835    0.0535 O.2       6 UNK        -0.5237 
     44 N          31.3323   28.4802    0.7312 N.am      7 UNK        -0.4739 
     45 CA         32.2671   28.4287   -0.4012 C.3       7 UNK         0.0276 
     46 CB         33.0898   27.1326   -0.3339 C.3       7 UNK        -0.1927 
     47 C          33.2057   29.6477   -0.4615 C.2       7 UNK         0.5013 
     48 O          33.5752   30.0760   -1.5550 O.2       7 UNK        -0.5193 
     49 N          33.5423   30.1928    0.7136 N.am      8 UNK        -0.4253 
     50 CA         34.2930   31.4319    0.8966 C.3       8 UNK         0.0242 
     51 CB         35.6528   31.1095    1.5450 C.3       8 UNK        -0.2000 
     52 C          33.4416   32.3993    1.7330 C.2       8 UNK         0.4948 
     53 O          33.8668   32.8250    2.8074 O.2       8 UNK        -0.5275 
     54 N          32.2200   32.6802    1.2533 N.am      9 UNK        -0.4246 
     55 CA         31.1729   33.5443    1.8287 C.3       9 UNK         0.0261 
     56 CB         31.6614   34.9963    1.9986 C.3       9 UNK        -0.1959 
     57 C          30.5338   33.0186    3.1292 C.2       9 UNK         0.5033 
     58 O          29.3189   33.1378    3.2862 O.2       9 UNK        -0.5390 
     59 N          31.3402   32.4301    4.0144 N.am      10 UNK        -0.4215 
     60 CA         30.9522   31.7223    5.2292 C.3       10 UNK         0.0240 
     61 CB         30.4394   32.6978    6.3076 C.3       10 UNK        -0.1982 
     62 C          32.1985   30.9722    5.7016 C.2       10 UNK         0.4970 
     63 O          33.1875   31.6250    6.0420 O.2       10 UNK        -0.4916 
     64 N          32.1534   29.6371    5.6862 N.am      11 UNK        -0.4279 
     65 CA         33.2953   28.7776    6.0360 C.3       11 UNK         0.1003 
     66 C          32.9237   27.5310    6.8871 C.2       11 UNK         0.5709 
     67 N          31.6673   27.3319    7.2669 N.am      11 UNK        -0.7358 
     68 O          33.7983   26.7451    7.2428 O.2       11 UNK        -0.4999 
     69 C69        34.1818   28.4642    4.7988 C.3       12 UNK        -0.0954 
     70 S70        33.3342   27.4787    3.5161 S.3       12 UNK        -0.2268 
     71 C71        34.1621   25.8675    3.7098 C.3       12 UNK         0.0203 
     72 H72        28.7724   22.4376   -4.1841 H         1 UNK         0.0888 
     73 H73        28.1302   21.2270   -3.0726 H         1 UNK         0.0888 
     74 H74        27.0423   22.3896   -3.8360 H         1 UNK         0.0888 
     75 H75        29.8040   24.0950   -3.1180 H         1 UNK         0.3017 
     76 H76        30.3875   25.6832   -1.6955 H         1 UNK         0.0873 
     77 H77        29.6026   23.6440    0.4484 H         1 UNK         0.0745 
     78 H78        30.6214   25.0377    0.7200 H         1 UNK         0.0745 
     79 H79        31.1895   21.5576    0.8732 H         1 UNK         0.0705 
     80 H80        32.9239   21.6788    0.6894 H         1 UNK         0.0705 
     81 H81        33.7112   24.3174    1.5013 H         1 UNK         0.1334 
     82 H82        32.4419   24.8830    5.5522 H         1 UNK         0.1417 
     83 H83        30.5759   21.8780    3.1319 H         1 UNK         0.1562 
     84 H84        30.9226   23.3069    6.5739 H         1 UNK         0.0748 
     85 H85        30.4228   21.8826    5.6996 H         1 UNK         0.0748 
     86 H86        30.2061   25.6289    5.6679 H         1 UNK         0.0940 
     87 H87        28.5900   25.9420    6.1894 H         1 UNK         0.0940 
     88 H88        29.3581   25.4539    3.2581 H         1 UNK         0.0703 
     89 H89        27.1843   25.5956    2.7973 H         1 UNK         0.3081 
     90 H90        24.3984   26.0672    4.4136 H         1 UNK         0.0719 
     91 H91        24.3901   28.5454    4.6245 H         1 UNK         0.0809 
     92 H92        25.0216   28.7134    2.9916 H         1 UNK         0.0809 
     93 H93        23.4075   28.0548    3.2574 H         1 UNK         0.0809 
     94 H94        24.8460   26.6853    1.6124 H         1 UNK         0.2990 
     95 H95        25.1276   23.3457    0.5389 H         1 UNK         0.0690 
     96 H96        23.1165   23.9260   -0.7980 H         1 UNK         0.0788 
     97 H97        22.7364   25.2481    0.3051 H         1 UNK         0.0788 
     98 H98        22.6857   23.5866    0.8704 H         1 UNK         0.0788 
     99 H99        26.2463   24.6640   -0.7591 H         1 UNK         0.2993 
    100 H100       25.8757   27.0470   -2.5809 H         1 UNK         0.0949 
    101 H101       27.1896   28.6822   -0.3540 H         1 UNK         0.0767 
    102 H102       27.3486   28.9894   -2.0776 H         1 UNK         0.0767 
    103 H103       25.7891   29.1753   -1.2948 H         1 UNK         0.0767 
    104 H104       27.7648   25.9136   -2.6684 H         1 UNK         0.3013 
    105 H105       28.9154   27.4059    1.8452 H         1 UNK         0.3121 
    106 H106       30.2645   29.8212    2.9397 H         1 UNK         0.0774 
    107 H107       27.5092   29.6951    1.6089 H         1 UNK         0.0815 
    108 H108       27.9053   30.3246    3.2004 H         1 UNK         0.0815 
    109 H109       28.4340   31.1781    1.7636 H         1 UNK         0.0815 
    110 H110       31.4693   27.8028    1.4690 H         1 UNK         0.2987 
    111 H111       31.6780   28.4188   -1.3209 H         1 UNK         0.0949 
    112 H112       32.4494   26.2541   -0.3225 H         1 UNK         0.0806 
    113 H113       33.7444   27.0418   -1.2018 H         1 UNK         0.0806 
    114 H114       33.7223   27.0959    0.5534 H         1 UNK         0.0806 
    115 H115       33.1827   29.7604    1.5530 H         1 UNK         0.3010 
    116 H116       34.4785   31.9196   -0.0628 H         1 UNK         0.0829 
    117 H117       35.5353   30.6393    2.5216 H         1 UNK         0.0813 
    118 H118       36.2426   32.0160    1.6870 H         1 UNK         0.0813 
    119 H119       36.2387   30.4366    0.9188 H         1 UNK         0.0813 
    120 H120       31.9499   32.2170    0.3948 H         1 UNK         0.3038 
    121 H121       30.3751   33.5572    1.0839 H         1 UNK         0.0769 
    122 H122       32.0440   35.3986    1.0607 H         1 UNK         0.0811 
    123 H123       32.4505   35.0789    2.7465 H         1 UNK         0.0811 
    124 H124       30.8449   35.6443    2.3200 H         1 UNK         0.0811 
    125 H125       32.3410   32.4447    3.8160 H         1 UNK         0.3204 
    126 H126       30.1615   31.0079    4.9920 H         1 UNK         0.0748 
    127 H127       31.1736   33.4723    6.5331 H         1 UNK         0.0771 
    128 H128       29.5188   33.1915    5.9967 H         1 UNK         0.0771 
    129 H129       30.2228   32.1703    7.2373 H         1 UNK         0.0771 
    130 H130       31.3177   29.1490    5.3673 H         1 UNK         0.2980 
    131 H131       33.9283   29.3407    6.7242 H         1 UNK         0.0545 
    132 H132       31.4532   26.5395    7.8499 H         1 UNK         0.3459 
    133 H133       30.9297   27.9477    6.9622 H         1 UNK         0.3459 
    134 H134       35.1060   27.9723    5.1053 H         1 UNK         0.0616 
    135 H135       34.4991   29.3998    4.3373 H         1 UNK         0.0616 
    136 H136       34.6248   25.7875    4.6942 H         1 UNK         0.0634 
    137 H137       34.9716   25.7922    2.9824 H         1 UNK         0.0634 
@<TRIPOS>BOND
     1    1    2 1    
     2    1   72 1    
     3    1   73 1    
     4    1   74 1    
     5    2    3 2    
     6    2    4 am   BACKBONE|DICT|INTERRES
     7    4    5 1    
     8    4   75 1    
     9    5    6 1    
    10    5   35 1    
    11    5   76 1    
    12    6    7 1    
    13    6   77 1    
    14    6   78 1    
    15    7    8 1    
    16    8    9 1    
    17    8   79 1    
    18    8   80 1    
    19    9   10 ar   
    20    9   14 ar   
    21   10   11 ar   
    22   10   81 1    
    23   11   12 ar   
    24   11   71 1    
    25   12   13 ar   
    26   12   82 1    
    27   13   14 ar   
    28   13   15 1    
    29   14   83 1    
    30   15   16 1    
    31   15   84 1    
    32   15   85 1    
    33   16   17 1    
    34   17   18 1    
    35   17   86 1    
    36   17   87 1    
    37   18   19 1    
    38   18   37 1    
    39   18   88 1    
    40   19   20 am   BACKBONE|DICT|INTERRES
    41   19   89 1    
    42   20   21 2    
    43   20   22 1    
    44   22   23 1    
    45   22   24 1    
    46   22   90 1    
    47   23   91 1    
    48   23   92 1    
    49   23   93 1    
    50   24   25 am   BACKBONE|DICT|INTERRES
    51   24   94 1    
    52   25   26 2    
    53   25   27 1    
    54   27   28 1    
    55   27   29 1    
    56   27   95 1    
    57   28   96 1    
    58   28   97 1    
    59   28   98 1    
    60   29   30 am   BACKBONE|DICT|INTERRES
    61   29   99 1    
    62   30   31 2    
    63   30   32 1    
    64   32   33 1    
    65   32   34 1    
    66   32  100 1    
    67   33  101 1    
    68   33  102 1    
    69   33  103 1    
    70   34   35 am   BACKBONE|DICT|INTERRES
    71   34  104 1    
    72   35   36 2    
    73   37   38 2    
    74   37   39 am   BACKBONE|DICT|INTERRES
    75   39   40 1    
    76   39  105 1    
    77   40   41 1    
    78   40   42 1    
    79   40  106 1    
    80   41  107 1    
    81   41  108 1    
    82   41  109 1    
    83   42   43 2    
    84   42   44 am   BACKBONE|DICT|INTERRES
    85   44   45 1    
    86   44  110 1    
    87   45   46 1    
    88   45   47 1    
    89   45  111 1    
    90   46  112 1    
    91   46  113 1    
    92   46  114 1    
    93   47   48 2    
    94   47   49 am   BACKBONE|DICT|INTERRES
    95   49   50 1    
    96   49  115 1    
    97   50   51 1    
    98   50   52 1    
    99   50  116 1    
   100   51  117 1    
   101   51  118 1    
   102   51  119 1    
   103   52   53 2    
   104   52   54 am   BACKBONE|DICT|INTERRES
   105   54   55 1    
   106   54  120 1    
   107   55   56 1    
   108   55   57 1    
   109   55  121 1    
   110   56  122 1    
   111   56  123 1    
   112   56  124 1    
   113   57   58 2    
   114   57   59 am   BACKBONE|DICT|INTERRES
   115   59   60 1    
   116   59  125 1    
   117   60   61 1    
   118   60   62 1    
   119   60  126 1    
   120   61  127 1    
   121   61  128 1    
   122   61  129 1    
   123   62   63 2    
   124   62   64 am   BACKBONE|DICT|INTERRES
   125   64   65 1    
   126   64  130 1    
   127   65   66 1    
   128   65   69 1    
   129   65  131 1    
   130   66   67 am   BACKBONE|DICT|INTERRES
   131   66   68 2    
   132   67  132 1    
   133   67  133 1    
   134   69   70 1    
   135   69  134 1    
   136   69  135 1    
   137   70   71 1    
   138   71  136 1    
   139   71  137 1    
@<TRIPOS>SUBSTRUCTURE
     1 UNK         1 GROUP             0       ****    0 ROOT    
