@<TRIPOS>MOLECULE
3R136
137   139    1
SMALL
USER_CHARGES


@<TRIPOS>ATOM
      1 CA         28.4178   22.7952   -3.1795 C.3       0 UNK        -0.1979 
      2 C          28.6322   22.3489   -1.7411 C.2       0 UNK         0.4864 
      3 O          28.0481   21.3483   -1.3215 O.2       0 UNK        -0.5359 
      4 N          29.4592   23.0893   -0.9884 N.am      1 UNK        -0.4318 
      5 CA         29.8060   22.8949    0.4272 C.3       1 UNK         0.0824 
      6 C6         30.5309   21.5528    0.7320 C.3       12 UNK        -0.0944 
      7 S7         32.2184   21.5331    0.0331 S.3       12 UNK        -0.2672 
      8 C8         33.2380   21.9635    1.4864 C.3       12 UNK         0.0333 
      9 C9         32.7854   23.2712    2.1199 C.ar      12 UNK        -0.0807 
     10 C10        32.0141   23.2555    3.2858 C.ar      12 UNK        -0.0894 
     11 C11        31.4998   24.4417    3.8141 C.ar      12 UNK        -0.0804 
     12 C12        31.7791   25.6546    3.1782 C.ar      12 UNK        -0.0824 
     13 C13        32.5811   25.6866    2.0325 C.ar      12 UNK        -0.0762 
     14 C14        33.0868   24.4925    1.5106 C.ar      12 UNK        -0.0782 
     15 C15        32.9110   27.0119    1.3640 C.3       12 UNK         0.0230 
     16 S16        32.1121   27.2104   -0.2667 S.3       12 UNK        -0.2608 
     17 C17        30.3275   27.1452    0.1106 C.3       12 UNK        -0.0989 
     18 CA         29.7075   28.5373    0.4091 C.3       5 UNK         0.0716 
     19 N          28.2921   28.5904    0.0142 N.am      5 UNK        -0.4135 
     20 C          27.4141   29.5733    0.2739 C.2       4 UNK         0.5031 
     21 O          27.7150   30.6327    0.8243 O.2       4 UNK        -0.5229 
     22 CA         25.9365   29.3297   -0.0874 C.3       4 UNK         0.0329 
     23 CB         25.5616   30.1321   -1.3435 C.3       4 UNK        -0.2001 
     24 N          25.5491   27.9249   -0.2780 N.am      4 UNK        -0.4303 
     25 C          25.7002   26.9278    0.6065 C.2       3 UNK         0.5044 
     26 O          26.2500   27.0640    1.7040 O.2       3 UNK        -0.5152 
     27 CA         25.1866   25.5448    0.1724 C.3       3 UNK         0.0319 
     28 CB         25.4941   25.2312   -1.3105 C.3       3 UNK        -0.2001 
     29 N          25.8019   24.5347    1.0249 N.am      3 UNK        -0.4354 
     30 C          25.3881   23.2778    1.2067 C.2       2 UNK         0.4964 
     31 O          24.3533   22.8186    0.7194 O.2       2 UNK        -0.5047 
     32 CA         26.3318   22.3780    2.0278 C.3       2 UNK         0.0288 
     33 CB         25.7518   20.9738    2.2807 C.3       2 UNK        -0.2113 
     34 N          27.6175   22.2423    1.3392 N.am      2 UNK        -0.4145 
     35 C          28.6042   23.1470    1.3571 C.2       1 UNK         0.5006 
     36 O          28.5640   24.1780    2.0313 O.2       1 UNK        -0.5103 
     37 C          29.9275   28.9138    1.8882 C.2       5 UNK         0.5055 
     38 O          30.8283   29.6993    2.1882 O.2       5 UNK        -0.5220 
     39 N          29.0578   28.3953    2.7688 N.am      6 UNK        -0.4450 
     40 CA         29.0564   28.6388    4.2126 C.3       6 UNK         0.0367 
     41 CB         27.9603   27.7765    4.8574 C.3       6 UNK        -0.1929 
     42 C          28.8849   30.1149    4.6209 C.2       6 UNK         0.5070 
     43 O          29.2814   30.4664    5.7316 O.2       6 UNK        -0.5237 
     44 N          28.3189   30.9444    3.7345 N.am      7 UNK        -0.4739 
     45 CA         28.1883   32.3901    3.9127 C.3       7 UNK         0.0276 
     46 CB         26.7427   32.8091    3.5966 C.3       7 UNK        -0.1927 
     47 C          29.1757   33.1544    3.0174 C.2       7 UNK         0.5013 
     48 O          29.7863   34.1166    3.4832 O.2       7 UNK        -0.5193 
     49 N          29.2972   32.7347    1.7496 N.am      8 UNK        -0.4253 
     50 CA         30.0741   33.4161    0.7125 C.3       8 UNK         0.0242 
     51 CB         29.6739   32.8675   -0.6675 C.3       8 UNK        -0.2000 
     52 C          31.5945   33.3217    0.9101 C.2       8 UNK         0.4948 
     53 O          32.2804   34.3346    0.7646 O.2       8 UNK        -0.5275 
     54 N          32.0910   32.1165    1.2153 N.am      9 UNK        -0.4246 
     55 CA         33.5168   31.8279    1.4051 C.3       9 UNK         0.0261 
     56 CB         33.9127   30.6586    0.4902 C.3       9 UNK        -0.1959 
     57 C          33.8592   31.5056    2.8688 C.2       9 UNK         0.5033 
     58 O          35.0214   31.6590    3.2473 O.2       9 UNK        -0.5390 
     59 N          32.8484   31.0878    3.6453 N.am      10 UNK        -0.4215 
     60 CA         32.8665   30.6130    5.0317 C.3       10 UNK         0.0240 
     61 CB         33.6844   31.5147    5.9785 C.3       10 UNK        -0.1982 
     62 C          33.2970   29.1416    5.1199 C.2       10 UNK         0.4970 
     63 O          34.2051   28.7073    4.4089 O.2       10 UNK        -0.4916 
     64 N          32.6189   28.4010    6.0014 N.am      11 UNK        -0.4279 
     65 CA         32.9008   26.9938    6.3055 C.3       11 UNK         0.1003 
     66 C          34.1318   26.8362    7.2396 C.2       11 UNK         0.5709 
     67 N          34.8787   25.7488    7.1076 N.am      11 UNK        -0.7358 
     68 O          34.3977   27.6747    8.0996 O.2       11 UNK        -0.4999 
     69 C69        31.6303   26.3097    6.8752 C.3       12 UNK        -0.0954 
     70 S70        31.5862   24.5100    6.5838 S.3       12 UNK        -0.2268 
     71 C71        30.6130   24.3944    5.0490 C.3       12 UNK         0.0203 
     72 H72        27.3652   23.0212   -3.3478 H         1 UNK         0.0888 
     73 H73        28.9990   23.6843   -3.4235 H         1 UNK         0.0888 
     74 H74        28.7101   22.0005   -3.8654 H         1 UNK         0.0888 
     75 H75        29.9020   23.8905   -1.4155 H         1 UNK         0.3017 
     76 H76        30.5018   23.7030    0.6527 H         1 UNK         0.0873 
     77 H77        30.5921   21.3689    1.8054 H         1 UNK         0.0745 
     78 H78        29.9803   20.7037    0.3259 H         1 UNK         0.0745 
     79 H79        34.2815   22.0460    1.1791 H         1 UNK         0.0705 
     80 H80        33.1945   21.1477    2.2098 H         1 UNK         0.0705 
     81 H81        31.7820   22.3142    3.7652 H         1 UNK         0.1334 
     82 H82        31.3780   26.5737    3.5807 H         1 UNK         0.1417 
     83 H83        33.6850   24.5111    0.6094 H         1 UNK         0.1562 
     84 H84        33.9915   27.0774    1.2288 H         1 UNK         0.0748 
     85 H85        32.6485   27.8458    2.0141 H         1 UNK         0.0748 
     86 H86        30.1258   26.4215    0.9033 H         1 UNK         0.0940 
     87 H87        29.8626   26.7206   -0.7803 H         1 UNK         0.0940 
     88 H88        30.2145   29.2894   -0.1987 H         1 UNK         0.0703 
     89 H89        27.9303   27.7698   -0.4465 H         1 UNK         0.3081 
     90 H90        25.3465   29.7116    0.7481 H         1 UNK         0.0719 
     91 H91        26.0915   29.7718   -2.2263 H         1 UNK         0.0809 
     92 H92        24.4919   30.0776   -1.5465 H         1 UNK         0.0809 
     93 H93        25.8108   31.1877   -1.2229 H         1 UNK         0.0809 
     94 H94        25.0944   27.7094   -1.1537 H         1 UNK         0.2990 
     95 H95        24.1068   25.5305    0.3321 H         1 UNK         0.0690 
     96 H96        26.5608   25.3079   -1.5254 H         1 UNK         0.0788 
     97 H97        24.9685   25.9074   -1.9850 H         1 UNK         0.0788 
     98 H98        25.1783   24.2229   -1.5789 H         1 UNK         0.0788 
     99 H99        26.6434   24.8414    1.5061 H         1 UNK         0.2993 
    100 H100       26.4882   22.8584    2.9964 H         1 UNK         0.0949 
    101 H101       25.5820   20.4327    1.3488 H         1 UNK         0.0767 
    102 H102       26.4216   20.3750    2.8982 H         1 UNK         0.0767 
    103 H103       24.7965   21.0342    2.8039 H         1 UNK         0.0767 
    104 H104       27.6813   21.5159    0.6319 H         1 UNK         0.3013 
    105 H105       28.3108   27.8074    2.4163 H         1 UNK         0.3121 
    106 H106       30.0233   28.3115    4.5971 H         1 UNK         0.0774 
    107 H107       27.9762   27.8704    5.9441 H         1 UNK         0.0815 
    108 H108       26.9667   28.0723    4.5173 H         1 UNK         0.0815 
    109 H109       28.0892   26.7207    4.6203 H         1 UNK         0.0815 
    110 H110       28.0446   30.5763    2.8304 H         1 UNK         0.2987 
    111 H111       28.3997   32.6689    4.9476 H         1 UNK         0.0949 
    112 H112       26.4586   32.5539    2.5747 H         1 UNK         0.0806 
    113 H113       26.0359   32.3241    4.2701 H         1 UNK         0.0806 
    114 H114       26.6138   33.8861    3.7129 H         1 UNK         0.0806 
    115 H115       28.7308   31.9461    1.4404 H         1 UNK         0.3010 
    116 H116       29.8059   34.4746    0.7418 H         1 UNK         0.0829 
    117 H117       30.2176   33.3772   -1.4641 H         1 UNK         0.0813 
    118 H118       29.8855   31.8014   -0.7571 H         1 UNK         0.0813 
    119 H119       28.6101   33.0119   -0.8574 H         1 UNK         0.0813 
    120 H120       31.4512   31.3386    1.3445 H         1 UNK         0.3038 
    121 H121       34.1221   32.6913    1.1211 H         1 UNK         0.0769 
    122 H122       34.9644   30.3980    0.6164 H         1 UNK         0.0811 
    123 H123       33.7627   30.9087   -0.5600 H         1 UNK         0.0811 
    124 H124       33.3260   29.7681    0.7080 H         1 UNK         0.0811 
    125 H125       31.9776   30.8888    3.1620 H         1 UNK         0.3204 
    126 H126       31.8286   30.6750    5.3553 H         1 UNK         0.0748 
    127 H127       33.5099   31.2392    7.0193 H         1 UNK         0.0771 
    128 H128       34.7570   31.4272    5.8031 H         1 UNK         0.0771 
    129 H129       33.4072   32.5632    5.8687 H         1 UNK         0.0771 
    130 H130       31.9293   28.8479    6.5878 H         1 UNK         0.2980 
    131 H131       33.1548   26.5116    5.3609 H         1 UNK         0.0545 
    132 H132       35.6751   25.6226    7.7123 H         1 UNK         0.3459 
    133 H133       34.6465   25.0423    6.4269 H         1 UNK         0.3459 
    134 H134       31.5355   26.4920    7.9473 H         1 UNK         0.0616 
    135 H135       30.7319   26.7413    6.4321 H         1 UNK         0.0616 
    136 H136       30.0581   23.4550    5.0622 H         1 UNK         0.0634 
    137 H137       29.8592   25.1803    5.0089 H         1 UNK         0.0634 
@<TRIPOS>BOND
     1    1    2 1    
     2    1   72 1    
     3    1   73 1    
     4    1   74 1    
     5    2    3 2    
     6    2    4 am   BACKBONE|DICT|INTERRES
     7    4    5 1    
     8    4   75 1    
     9    5    6 1    
    10    5   35 1    
    11    5   76 1    
    12    6    7 1    
    13    6   77 1    
    14    6   78 1    
    15    7    8 1    
    16    8    9 1    
    17    8   79 1    
    18    8   80 1    
    19    9   10 ar   
    20    9   14 ar   
    21   10   11 ar   
    22   10   81 1    
    23   11   12 ar   
    24   11   71 1    
    25   12   13 ar   
    26   12   82 1    
    27   13   14 ar   
    28   13   15 1    
    29   14   83 1    
    30   15   16 1    
    31   15   84 1    
    32   15   85 1    
    33   16   17 1    
    34   17   18 1    
    35   17   86 1    
    36   17   87 1    
    37   18   19 1    
    38   18   37 1    
    39   18   88 1    
    40   19   20 am   BACKBONE|DICT|INTERRES
    41   19   89 1    
    42   20   21 2    
    43   20   22 1    
    44   22   23 1    
    45   22   24 1    
    46   22   90 1    
    47   23   91 1    
    48   23   92 1    
    49   23   93 1    
    50   24   25 am   BACKBONE|DICT|INTERRES
    51   24   94 1    
    52   25   26 2    
    53   25   27 1    
    54   27   28 1    
    55   27   29 1    
    56   27   95 1    
    57   28   96 1    
    58   28   97 1    
    59   28   98 1    
    60   29   30 am   BACKBONE|DICT|INTERRES
    61   29   99 1    
    62   30   31 2    
    63   30   32 1    
    64   32   33 1    
    65   32   34 1    
    66   32  100 1    
    67   33  101 1    
    68   33  102 1    
    69   33  103 1    
    70   34   35 am   BACKBONE|DICT|INTERRES
    71   34  104 1    
    72   35   36 2    
    73   37   38 2    
    74   37   39 am   BACKBONE|DICT|INTERRES
    75   39   40 1    
    76   39  105 1    
    77   40   41 1    
    78   40   42 1    
    79   40  106 1    
    80   41  107 1    
    81   41  108 1    
    82   41  109 1    
    83   42   43 2    
    84   42   44 am   BACKBONE|DICT|INTERRES
    85   44   45 1    
    86   44  110 1    
    87   45   46 1    
    88   45   47 1    
    89   45  111 1    
    90   46  112 1    
    91   46  113 1    
    92   46  114 1    
    93   47   48 2    
    94   47   49 am   BACKBONE|DICT|INTERRES
    95   49   50 1    
    96   49  115 1    
    97   50   51 1    
    98   50   52 1    
    99   50  116 1    
   100   51  117 1    
   101   51  118 1    
   102   51  119 1    
   103   52   53 2    
   104   52   54 am   BACKBONE|DICT|INTERRES
   105   54   55 1    
   106   54  120 1    
   107   55   56 1    
   108   55   57 1    
   109   55  121 1    
   110   56  122 1    
   111   56  123 1    
   112   56  124 1    
   113   57   58 2    
   114   57   59 am   BACKBONE|DICT|INTERRES
   115   59   60 1    
   116   59  125 1    
   117   60   61 1    
   118   60   62 1    
   119   60  126 1    
   120   61  127 1    
   121   61  128 1    
   122   61  129 1    
   123   62   63 2    
   124   62   64 am   BACKBONE|DICT|INTERRES
   125   64   65 1    
   126   64  130 1    
   127   65   66 1    
   128   65   69 1    
   129   65  131 1    
   130   66   67 am   BACKBONE|DICT|INTERRES
   131   66   68 2    
   132   67  132 1    
   133   67  133 1    
   134   69   70 1    
   135   69  134 1    
   136   69  135 1    
   137   70   71 1    
   138   71  136 1    
   139   71  137 1    
@<TRIPOS>SUBSTRUCTURE
     1 UNK         1 GROUP             0       ****    0 ROOT    
