@<TRIPOS>MOLECULE
3R136
137   139    1
SMALL
USER_CHARGES


@<TRIPOS>ATOM
      1 CA         28.1675   20.2379   -0.6166 C.3       0 UNK        -0.1979 
      2 C          28.4085   21.3004   -1.6787 C.2       0 UNK         0.4864 
      3 O          27.7867   21.2555   -2.7409 O.2       0 UNK        -0.5359 
      4 N          29.3083   22.2526   -1.3983 N.am      1 UNK        -0.4318 
      5 CA         29.6447   23.3877   -2.2676 C.3       1 UNK         0.0824 
      6 C6         30.9457   24.0982   -1.8088 C.3       12 UNK        -0.0944 
      7 S7         30.8819   24.7617   -0.1054 S.3       12 UNK        -0.2672 
      8 C8         31.7611   23.4703    0.8241 C.3       12 UNK         0.0333 
      9 C9         31.7810   23.8155    2.3018 C.ar      12 UNK        -0.0807 
     10 C10        32.7785   24.6563    2.7979 C.ar      12 UNK        -0.0894 
     11 C11        32.7833   25.0365    4.1395 C.ar      12 UNK        -0.0804 
     12 C12        31.7990   24.5417    4.9985 C.ar      12 UNK        -0.0824 
     13 C13        30.7995   23.6879    4.5182 C.ar      12 UNK        -0.0762 
     14 C14        30.7952   23.3266    3.1665 C.ar      12 UNK        -0.0782 
     15 C15        29.7211   23.1691    5.4636 C.3       12 UNK         0.0230 
     16 S16        28.0995   23.9670    5.2017 S.3       12 UNK        -0.2608 
     17 C17        28.5288   25.7386    5.2733 C.3       12 UNK        -0.0989 
     18 CA         28.4601   26.3676    3.8551 C.3       5 UNK         0.0716 
     19 N          27.0921   26.7037    3.4321 N.am      5 UNK        -0.4135 
     20 C          26.2985   27.6487    3.9700 C.2       4 UNK         0.5031 
     21 O          26.5851   28.2964    4.9773 O.2       4 UNK        -0.5229 
     22 CA         24.9637   27.9694    3.2686 C.3       4 UNK         0.0329 
     23 CB         25.0558   29.3295    2.5550 C.3       4 UNK        -0.2001 
     24 N          24.5425   26.9618    2.2977 N.am      4 UNK        -0.4303 
     25 C          24.0546   25.7511    2.5987 C.2       3 UNK         0.5044 
     26 O          23.8234   25.3696    3.7462 O.2       3 UNK        -0.5152 
     27 CA         23.8015   24.7961    1.4156 C.3       3 UNK         0.0319 
     28 CB         22.3083   24.7772    1.0504 C.3       3 UNK        -0.2001 
     29 N          24.5893   25.1039    0.2126 N.am      3 UNK        -0.4354 
     30 C          25.9273   25.0798    0.1493 C.2       2 UNK         0.4964 
     31 O          26.6585   24.8366    1.1140 O.2       2 UNK        -0.5047 
     32 CA         26.5641   25.4387   -1.1941 C.3       2 UNK         0.0288 
     33 CB         26.9208   26.9372   -1.2433 C.3       2 UNK        -0.2113 
     34 N          27.7621   24.6225   -1.3151 N.am      2 UNK        -0.4145 
     35 C          28.4668   24.3748   -2.4239 C.2       1 UNK         0.5006 
     36 O          28.2116   24.8591   -3.5283 O.2       1 UNK        -0.5103 
     37 C          29.3795   27.5913    3.6673 C.2       5 UNK         0.5055 
     38 O          29.7873   28.2406    4.6369 O.2       5 UNK        -0.5220 
     39 N          29.6230   27.9154    2.3929 N.am      6 UNK        -0.4450 
     40 CA         30.3029   29.1244    1.9567 C.3       6 UNK         0.0367 
     41 CB         29.2569   30.2306    1.7136 C.3       6 UNK        -0.1929 
     42 C          31.1383   28.8163    0.7100 C.2       6 UNK         0.5070 
     43 O          30.7169   29.1236   -0.4058 O.2       6 UNK        -0.5237 
     44 N          32.3164   28.2146    0.9222 N.am      7 UNK        -0.4739 
     45 CA         33.3825   28.1649   -0.0873 C.3       7 UNK         0.0276 
     46 CB         34.3691   27.0346    0.2412 C.3       7 UNK        -0.1927 
     47 C          34.1108   29.5189   -0.2027 C.2       7 UNK         0.5013 
     48 O          34.5794   29.8676   -1.2871 O.2       7 UNK        -0.5193 
     49 N          34.1589   30.2596    0.9134 N.am      8 UNK        -0.4253 
     50 CA         34.5221   31.6747    0.9923 C.3       8 UNK         0.0242 
     51 CB         35.4007   31.8857    2.2431 C.3       8 UNK        -0.2000 
     52 C          33.2265   32.5135    1.0070 C.2       8 UNK         0.4948 
     53 O          32.2407   32.1163    0.3837 O.2       8 UNK        -0.5275 
     54 N          33.2180   33.6424    1.7318 N.am      9 UNK        -0.4246 
     55 CA         32.0031   34.4234    2.0085 C.3       9 UNK         0.0261 
     56 CB         32.3845   35.7711    2.6428 C.3       9 UNK        -0.1959 
     57 C          31.0136   33.6550    2.9072 C.2       9 UNK         0.5033 
     58 O          29.8061   33.7040    2.6727 O.2       9 UNK        -0.5390 
     59 N          31.5650   32.9345    3.8887 N.am      10 UNK        -0.4215 
     60 CA         30.9198   31.9813    4.7829 C.3       10 UNK         0.0240 
     61 CB         30.0072   32.6960    5.7970 C.3       10 UNK        -0.1982 
     62 C          32.0548   31.2393    5.4942 C.2       10 UNK         0.4970 
     63 O          33.0861   31.8599    5.7707 O.2       10 UNK        -0.4916 
     64 N          31.8651   29.9486    5.7766 N.am      11 UNK        -0.4279 
     65 CA         32.8577   29.1191    6.4789 C.3       11 UNK         0.1003 
     66 C          32.2513   27.9638    7.3220 C.2       11 UNK         0.5709 
     67 N          30.9759   27.6253    7.1820 N.am      11 UNK        -0.7358 
     68 O          32.9479   27.3820    8.1501 O.2       11 UNK        -0.4999 
     69 C69        34.0200   28.6607    5.5537 C.3       12 UNK        -0.0954 
     70 S70        33.4543   27.6993    4.1113 S.3       12 UNK        -0.2268 
     71 C71        33.8371   26.0032    4.6483 C.3       12 UNK         0.0203 
     72 H72        28.7872   20.3939    0.2663 H         1 UNK         0.0888 
     73 H73        28.3915   19.2495   -1.0171 H         1 UNK         0.0888 
     74 H74        27.1237   20.2506   -0.3041 H         1 UNK         0.0888 
     75 H75        29.7844   22.2346   -0.5095 H         1 UNK         0.3017 
     76 H76        29.8354   22.9789   -3.2625 H         1 UNK         0.0873 
     77 H77        31.1809   24.9235   -2.4836 H         1 UNK         0.0745 
     78 H78        31.7885   23.4103   -1.8928 H         1 UNK         0.0745 
     79 H79        31.2848   22.5019    0.6697 H         1 UNK         0.0705 
     80 H80        32.7807   23.3797    0.4459 H         1 UNK         0.0705 
     81 H81        33.5393   25.0396    2.1348 H         1 UNK         0.1334 
     82 H82        31.8013   24.8377    6.0389 H         1 UNK         0.1417 
     83 H83        30.0136   22.6819    2.7880 H         1 UNK         0.1562 
     84 H84        30.0204   23.3146    6.5028 H         1 UNK         0.0748 
     85 H85        29.6099   22.0922    5.3292 H         1 UNK         0.0748 
     86 H86        29.5218   25.8397    5.7071 H         1 UNK         0.0940 
     87 H87        27.8604   26.2423    5.9720 H         1 UNK         0.0940 
     88 H88        28.8243   25.6250    3.1423 H         1 UNK         0.0703 
     89 H89        26.7587   26.1898    2.6234 H         1 UNK         0.3081 
     90 H90        24.1972   28.0397    4.0434 H         1 UNK         0.0719 
     91 H91        25.3293   30.1206    3.2549 H         1 UNK         0.0809 
     92 H92        25.8079   29.3219    1.7649 H         1 UNK         0.0809 
     93 H93        24.1013   29.6113    2.1100 H         1 UNK         0.0809 
     94 H94        24.6761   27.1868    1.3231 H         1 UNK         0.2990 
     95 H95        24.0852   23.7947    1.7466 H         1 UNK         0.0690 
     96 H96        22.0964   24.0352    0.2803 H         1 UNK         0.0788 
     97 H97        21.9690   25.7479    0.6863 H         1 UNK         0.0788 
     98 H98        21.6972   24.5231    1.9178 H         1 UNK         0.0788 
     99 H99        24.0652   25.3302   -0.6213 H         1 UNK         0.2993 
    100 H100       25.8773   25.1872   -2.0051 H         1 UNK         0.0949 
    101 H101       27.6235   27.2111   -0.4549 H         1 UNK         0.0767 
    102 H102       27.3730   27.2080   -2.1975 H         1 UNK         0.0767 
    103 H103       26.0319   27.5574   -1.1220 H         1 UNK         0.0767 
    104 H104       28.0466   24.1855   -0.4469 H         1 UNK         0.3013 
    105 H105       29.2949   27.3072    1.6548 H         1 UNK         0.3121 
    106 H106       30.9941   29.4669    2.7295 H         1 UNK         0.0774 
    107 H107       28.5300   29.9401    0.9543 H         1 UNK         0.0815 
    108 H108       28.7063   30.4690    2.6236 H         1 UNK         0.0815 
    109 H109       29.7363   31.1490    1.3722 H         1 UNK         0.0815 
    110 H110       32.5543   27.9150    1.8594 H         1 UNK         0.2987 
    111 H111       32.9388   27.9488   -1.0621 H         1 UNK         0.0949 
    112 H112       33.8883   26.0618    0.1448 H         1 UNK         0.0806 
    113 H113       35.2132   27.0402   -0.4498 H         1 UNK         0.0806 
    114 H114       34.7725   27.1230    1.2505 H         1 UNK         0.0806 
    115 H115       33.7224   29.8737    1.7365 H         1 UNK         0.3010 
    116 H116       35.0947   31.9667    0.1095 H         1 UNK         0.0829 
    117 H117       35.8005   32.8994    2.2868 H         1 UNK         0.0813 
    118 H118       36.2589   31.2131    2.2343 H         1 UNK         0.0813 
    119 H119       34.8497   31.7008    3.1667 H         1 UNK         0.0813 
    120 H120       34.0678   33.9323    2.1940 H         1 UNK         0.3038 
    121 H121       31.5026   34.6235    1.0584 H         1 UNK         0.0769 
    122 H122       33.0259   36.3534    1.9811 H         1 UNK         0.0811 
    123 H123       32.9077   35.6421    3.5911 H         1 UNK         0.0811 
    124 H124       31.4957   36.3721    2.8408 H         1 UNK         0.0811 
    125 H125       32.5671   32.9829    4.0269 H         1 UNK         0.3204 
    126 H126       30.3350   31.2746    4.1942 H         1 UNK         0.0748 
    127 H127       29.5634   31.9817    6.4916 H         1 UNK         0.0771 
    128 H128       30.5585   33.4292    6.3871 H         1 UNK         0.0771 
    129 H129       29.1862   33.2141    5.3016 H         1 UNK         0.0771 
    130 H130       31.0200   29.4722    5.4744 H         1 UNK         0.2980 
    131 H131       33.3085   29.7591    7.2402 H         1 UNK         0.0545 
    132 H132       30.6018   26.9025    7.7741 H         1 UNK         0.3459 
    133 H133       30.4107   28.0050    6.4311 H         1 UNK         0.3459 
    134 H134       34.7669   28.0960    6.1142 H         1 UNK         0.0616 
    135 H135       34.5501   29.5348    5.1734 H         1 UNK         0.0616 
    136 H136       34.8214   25.7199    4.2727 H         1 UNK         0.0634 
    137 H137       33.8945   25.9504    5.7362 H         1 UNK         0.0634 
@<TRIPOS>BOND
     1    1    2 1    
     2    1   72 1    
     3    1   73 1    
     4    1   74 1    
     5    2    3 2    
     6    2    4 am   BACKBONE|DICT|INTERRES
     7    4    5 1    
     8    4   75 1    
     9    5    6 1    
    10    5   35 1    
    11    5   76 1    
    12    6    7 1    
    13    6   77 1    
    14    6   78 1    
    15    7    8 1    
    16    8    9 1    
    17    8   79 1    
    18    8   80 1    
    19    9   10 ar   
    20    9   14 ar   
    21   10   11 ar   
    22   10   81 1    
    23   11   12 ar   
    24   11   71 1    
    25   12   13 ar   
    26   12   82 1    
    27   13   14 ar   
    28   13   15 1    
    29   14   83 1    
    30   15   16 1    
    31   15   84 1    
    32   15   85 1    
    33   16   17 1    
    34   17   18 1    
    35   17   86 1    
    36   17   87 1    
    37   18   19 1    
    38   18   37 1    
    39   18   88 1    
    40   19   20 am   BACKBONE|DICT|INTERRES
    41   19   89 1    
    42   20   21 2    
    43   20   22 1    
    44   22   23 1    
    45   22   24 1    
    46   22   90 1    
    47   23   91 1    
    48   23   92 1    
    49   23   93 1    
    50   24   25 am   BACKBONE|DICT|INTERRES
    51   24   94 1    
    52   25   26 2    
    53   25   27 1    
    54   27   28 1    
    55   27   29 1    
    56   27   95 1    
    57   28   96 1    
    58   28   97 1    
    59   28   98 1    
    60   29   30 am   BACKBONE|DICT|INTERRES
    61   29   99 1    
    62   30   31 2    
    63   30   32 1    
    64   32   33 1    
    65   32   34 1    
    66   32  100 1    
    67   33  101 1    
    68   33  102 1    
    69   33  103 1    
    70   34   35 am   BACKBONE|DICT|INTERRES
    71   34  104 1    
    72   35   36 2    
    73   37   38 2    
    74   37   39 am   BACKBONE|DICT|INTERRES
    75   39   40 1    
    76   39  105 1    
    77   40   41 1    
    78   40   42 1    
    79   40  106 1    
    80   41  107 1    
    81   41  108 1    
    82   41  109 1    
    83   42   43 2    
    84   42   44 am   BACKBONE|DICT|INTERRES
    85   44   45 1    
    86   44  110 1    
    87   45   46 1    
    88   45   47 1    
    89   45  111 1    
    90   46  112 1    
    91   46  113 1    
    92   46  114 1    
    93   47   48 2    
    94   47   49 am   BACKBONE|DICT|INTERRES
    95   49   50 1    
    96   49  115 1    
    97   50   51 1    
    98   50   52 1    
    99   50  116 1    
   100   51  117 1    
   101   51  118 1    
   102   51  119 1    
   103   52   53 2    
   104   52   54 am   BACKBONE|DICT|INTERRES
   105   54   55 1    
   106   54  120 1    
   107   55   56 1    
   108   55   57 1    
   109   55  121 1    
   110   56  122 1    
   111   56  123 1    
   112   56  124 1    
   113   57   58 2    
   114   57   59 am   BACKBONE|DICT|INTERRES
   115   59   60 1    
   116   59  125 1    
   117   60   61 1    
   118   60   62 1    
   119   60  126 1    
   120   61  127 1    
   121   61  128 1    
   122   61  129 1    
   123   62   63 2    
   124   62   64 am   BACKBONE|DICT|INTERRES
   125   64   65 1    
   126   64  130 1    
   127   65   66 1    
   128   65   69 1    
   129   65  131 1    
   130   66   67 am   BACKBONE|DICT|INTERRES
   131   66   68 2    
   132   67  132 1    
   133   67  133 1    
   134   69   70 1    
   135   69  134 1    
   136   69  135 1    
   137   70   71 1    
   138   71  136 1    
   139   71  137 1    
@<TRIPOS>SUBSTRUCTURE
     1 UNK         1 GROUP             0       ****    0 ROOT    
