@<TRIPOS>MOLECULE
3R136
137   139    1
SMALL
USER_CHARGES


@<TRIPOS>ATOM
      1 CA         32.4471   28.1935   -2.3374 C.3       0 UNK        -0.1979 
      2 C          31.6601   26.9001   -2.1846 C.2       0 UNK         0.4864 
      3 O          31.4534   26.1963   -3.1741 O.2       0 UNK        -0.5359 
      4 N          31.2367   26.5859   -0.9519 N.am      1 UNK        -0.4318 
      5 CA         30.4991   25.3781   -0.5601 C.3       1 UNK         0.0824 
      6 C6         31.3026   24.0592   -0.7527 C.3       12 UNK        -0.0944 
      7 S7         32.9008   24.0793    0.1270 S.3       12 UNK        -0.2672 
      8 C8         32.5977   22.9230    1.4997 C.3       12 UNK         0.0333 
      9 C9         31.6999   23.5211    2.5736 C.ar      12 UNK        -0.0807 
     10 C10        32.1966   24.5172    3.4203 C.ar      12 UNK        -0.0894 
     11 C11        31.4022   25.0435    4.4424 C.ar      12 UNK        -0.0804 
     12 C12        30.1133   24.5418    4.6328 C.ar      12 UNK        -0.0824 
     13 C13        29.5902   23.5692    3.7748 C.ar      12 UNK        -0.0762 
     14 C14        30.3892   23.0615    2.7450 C.ar      12 UNK        -0.0782 
     15 C15        28.1649   23.0653    3.9706 C.3       12 UNK         0.0230 
     16 S16        26.9577   23.9719    2.9441 S.3       12 UNK        -0.2608 
     17 C17        27.1385   25.6772    3.5646 C.3       12 UNK        -0.0989 
     18 CA         27.9841   26.5296    2.5706 C.3       5 UNK         0.0716 
     19 N          27.1820   27.0410    1.4564 N.am      5 UNK        -0.4135 
     20 C          26.2499   28.0018    1.5264 C.2       4 UNK         0.5031 
     21 O          25.9663   28.6123    2.5587 O.2       4 UNK        -0.5229 
     22 CA         25.5000   28.3331    0.2274 C.3       4 UNK         0.0329 
     23 CB         26.3078   29.3117   -0.6376 C.3       4 UNK        -0.2001 
     24 N          25.1810   27.1405   -0.5600 N.am      4 UNK        -0.4303 
     25 C          24.2270   26.2505   -0.2473 C.2       3 UNK         0.5044 
     26 O          23.5022   26.3463    0.7437 O.2       3 UNK        -0.5152 
     27 CA         24.0178   25.0676   -1.2126 C.3       3 UNK         0.0319 
     28 CB         22.7934   25.3180   -2.1086 C.3       3 UNK        -0.2001 
     29 N          25.1841   24.8101   -2.0614 N.am      3 UNK        -0.4354 
     30 C          26.2766   24.1465   -1.6619 C.2       2 UNK         0.4964 
     31 O          26.3718   23.5894   -0.5677 O.2       2 UNK        -0.5047 
     32 CA         27.4706   24.0921   -2.6375 C.3       2 UNK         0.0288 
     33 CB         27.3483   25.0521   -3.8448 C.3       2 UNK        -0.2113 
     34 N          28.7488   24.3064   -1.9470 N.am      2 UNK        -0.4145 
     35 C          29.0975   25.3745   -1.2109 C.2       1 UNK         0.5006 
     36 O          28.3570   26.3431   -1.0189 O.2       1 UNK        -0.5103 
     37 C          28.8107   27.6707    3.2002 C.2       5 UNK         0.5055 
     38 O          29.6222   28.2732    2.4924 O.2       5 UNK        -0.5220 
     39 N          28.5837   27.9754    4.4858 N.am      6 UNK        -0.4450 
     40 CA         29.2826   29.0139    5.2497 C.3       6 UNK         0.0367 
     41 CB         28.9060   28.8831    6.7344 C.3       6 UNK        -0.1929 
     42 C          29.0425   30.4514    4.7492 C.2       6 UNK         0.5070 
     43 O          29.7926   31.3499    5.1300 O.2       6 UNK        -0.5237 
     44 N          28.0215   30.6572    3.9042 N.am      7 UNK        -0.4739 
     45 CA         27.7811   31.9263    3.2146 C.3       7 UNK         0.0276 
     46 CB         26.3111   31.9940    2.7692 C.3       7 UNK        -0.1927 
     47 C          28.7261   32.1512    2.0175 C.2       7 UNK         0.5013 
     48 O          28.8055   33.2846    1.5414 O.2       7 UNK        -0.5193 
     49 N          29.4071   31.0954    1.5447 N.am      8 UNK        -0.4253 
     50 CA         30.3288   31.1434    0.4081 C.3       8 UNK         0.0242 
     51 CB         29.7895   30.2647   -0.7319 C.3       8 UNK        -0.2000 
     52 C          31.7502   30.7177    0.7979 C.2       8 UNK         0.4948 
     53 O          32.6987   31.4155    0.4368 O.2       8 UNK        -0.5275 
     54 N          31.8889   29.5848    1.4994 N.am      9 UNK        -0.4246 
     55 CA         33.1776   29.0508    1.9417 C.3       9 UNK         0.0261 
     56 CB         33.1323   27.5162    1.9187 C.3       9 UNK        -0.1959 
     57 C          33.5239   29.5668    3.3439 C.2       9 UNK         0.5033 
     58 O          32.6505   29.6312    4.2109 O.2       9 UNK        -0.5390 
     59 N          34.8035   29.8929    3.5550 N.am      10 UNK        -0.4215 
     60 CA         35.3341   30.4532    4.7982 C.3       10 UNK         0.0240 
     61 CB         36.5874   31.2876    4.4689 C.3       10 UNK        -0.1982 
     62 C          35.6048   29.3719    5.8624 C.2       10 UNK         0.4970 
     63 O          36.7571   29.1698    6.2517 O.2       10 UNK        -0.4916 
     64 N          34.5421   28.7009    6.3232 N.am      11 UNK        -0.4279 
     65 CA         34.5715   27.8331    7.5123 C.3       11 UNK         0.1003 
     66 C          34.8199   28.6472    8.8138 C.2       11 UNK         0.5709 
     67 N          35.5200   28.0715    9.7818 N.am      11 UNK        -0.7358 
     68 O          34.3519   29.7743    8.9682 O.2       11 UNK        -0.4999 
     69 C69        33.2804   26.9850    7.6447 C.3       12 UNK        -0.0954 
     70 S70        33.2180   25.6040    6.4565 S.3       12 UNK        -0.2268 
     71 C71        31.9162   26.1697    5.3272 C.3       12 UNK         0.0203 
     72 H72        31.9330   28.8679   -3.0213 H         1 UNK         0.0888 
     73 H73        32.5829   28.7064   -1.3859 H         1 UNK         0.0888 
     74 H74        33.4342   27.9823   -2.7478 H         1 UNK         0.0888 
     75 H75        31.4146   27.2311   -0.1972 H         1 UNK         0.3017 
     76 H76        30.3207   25.4818    0.5102 H         1 UNK         0.0873 
     77 H77        31.5119   23.8789   -1.8085 H         1 UNK         0.0745 
     78 H78        30.7238   23.2025   -0.4032 H         1 UNK         0.0745 
     79 H79        33.5565   22.6594    1.9484 H         1 UNK         0.0705 
     80 H80        32.1818   21.9920    1.1113 H         1 UNK         0.0705 
     81 H81        33.2054   24.8816    3.2842 H         1 UNK         0.1334 
     82 H82        29.5100   24.9262    5.4429 H         1 UNK         0.1417 
     83 H83        29.9933   22.2987    2.0882 H         1 UNK         0.1562 
     84 H84        27.8752   23.1399    5.0200 H         1 UNK         0.0748 
     85 H85        28.1120   22.0049    3.7193 H         1 UNK         0.0748 
     86 H86        27.5695   25.6211    4.5620 H         1 UNK         0.0940 
     87 H87        26.1441   26.1038    3.7068 H         1 UNK         0.0940 
     88 H88        28.7359   25.8787    2.1253 H         1 UNK         0.0703 
     89 H89        27.4159   26.6697    0.5387 H         1 UNK         0.3081 
     90 H90        24.5638   28.8222    0.5055 H         1 UNK         0.0719 
     91 H91        25.7226   29.6637   -1.4871 H         1 UNK         0.0809 
     92 H92        26.6081   30.1903   -0.0659 H         1 UNK         0.0809 
     93 H93        27.2137   28.8470   -1.0271 H         1 UNK         0.0809 
     94 H94        25.7552   26.9647   -1.3717 H         1 UNK         0.2990 
     95 H95        23.8183   24.1810   -0.6065 H         1 UNK         0.0690 
     96 H96        21.8978   25.4832   -1.5079 H         1 UNK         0.0788 
     97 H97        22.5937   24.4636   -2.7556 H         1 UNK         0.0788 
     98 H98        22.9272   26.1962   -2.7417 H         1 UNK         0.0788 
     99 H99        25.1790   25.2207   -2.9844 H         1 UNK         0.2993 
    100 H100       27.4956   23.0721   -3.0243 H         1 UNK         0.0949 
    101 H101       27.2550   26.0937   -3.5344 H         1 UNK         0.0767 
    102 H102       28.2273   24.9825   -4.4861 H         1 UNK         0.0767 
    103 H103       26.4867   24.8066   -4.4669 H         1 UNK         0.0767 
    104 H104       29.4151   23.5524   -2.0298 H         1 UNK         0.3013 
    105 H105       27.8514   27.4820    4.9744 H         1 UNK         0.3121 
    106 H106       30.3526   28.8252    5.1540 H         1 UNK         0.0774 
    107 H107       27.8403   29.0491    6.8963 H         1 UNK         0.0815 
    108 H108       29.4447   29.6146    7.3386 H         1 UNK         0.0815 
    109 H109       29.1584   27.8974    7.1253 H         1 UNK         0.0815 
    110 H110       27.4281   29.8767    3.6449 H         1 UNK         0.2987 
    111 H111       27.9540   32.7436    3.9185 H         1 UNK         0.0949 
    112 H112       26.0735   31.2275    2.0327 H         1 UNK         0.0806 
    113 H113       25.6335   31.8683    3.6138 H         1 UNK         0.0806 
    114 H114       26.0857   32.9599    2.3151 H         1 UNK         0.0806 
    115 H115       29.3146   30.2027    2.0182 H         1 UNK         0.3010 
    116 H116       30.4051   32.1631    0.0246 H         1 UNK         0.0829 
    117 H117       28.8455   30.6564   -1.1085 H         1 UNK         0.0813 
    118 H118       30.4810   30.2503   -1.5742 H         1 UNK         0.0813 
    119 H119       29.6278   29.2334   -0.4148 H         1 UNK         0.0813 
    120 H120       31.0610   29.1021    1.8467 H         1 UNK         0.3038 
    121 H121       33.9644   29.3682    1.2535 H         1 UNK         0.0769 
    122 H122       32.2093   27.1341    2.3539 H         1 UNK         0.0811 
    123 H123       33.9656   27.0842    2.4747 H         1 UNK         0.0811 
    124 H124       33.2068   27.1363    0.9013 H         1 UNK         0.0811 
    125 H125       35.4684   29.7613    2.8060 H         1 UNK         0.3204 
    126 H126       34.5923   31.1351    5.2204 H         1 UNK         0.0748 
    127 H127       37.3775   30.6776    4.0289 H         1 UNK         0.0771 
    128 H128       36.3559   32.0918    3.7701 H         1 UNK         0.0771 
    129 H129       36.9955   31.7517    5.3679 H         1 UNK         0.0771 
    130 H130       33.6336   28.9227    5.9327 H         1 UNK         0.2980 
    131 H131       35.4151   27.1495    7.3945 H         1 UNK         0.0545 
    132 H132       35.6790   28.5778   10.6389 H         1 UNK         0.3459 
    133 H133       35.8974   27.1430    9.6714 H         1 UNK         0.3459 
    134 H134       33.2198   26.5289    8.6349 H         1 UNK         0.0616 
    135 H135       32.3934   27.6145    7.5544 H         1 UNK         0.0616 
    136 H136       32.3042   26.9800    4.7117 H         1 UNK         0.0634 
    137 H137       31.0952   26.5900    5.9090 H         1 UNK         0.0634 
@<TRIPOS>BOND
     1    1    2 1    
     2    1   72 1    
     3    1   73 1    
     4    1   74 1    
     5    2    3 2    
     6    2    4 am   BACKBONE|DICT|INTERRES
     7    4    5 1    
     8    4   75 1    
     9    5    6 1    
    10    5   35 1    
    11    5   76 1    
    12    6    7 1    
    13    6   77 1    
    14    6   78 1    
    15    7    8 1    
    16    8    9 1    
    17    8   79 1    
    18    8   80 1    
    19    9   10 ar   
    20    9   14 ar   
    21   10   11 ar   
    22   10   81 1    
    23   11   12 ar   
    24   11   71 1    
    25   12   13 ar   
    26   12   82 1    
    27   13   14 ar   
    28   13   15 1    
    29   14   83 1    
    30   15   16 1    
    31   15   84 1    
    32   15   85 1    
    33   16   17 1    
    34   17   18 1    
    35   17   86 1    
    36   17   87 1    
    37   18   19 1    
    38   18   37 1    
    39   18   88 1    
    40   19   20 am   BACKBONE|DICT|INTERRES
    41   19   89 1    
    42   20   21 2    
    43   20   22 1    
    44   22   23 1    
    45   22   24 1    
    46   22   90 1    
    47   23   91 1    
    48   23   92 1    
    49   23   93 1    
    50   24   25 am   BACKBONE|DICT|INTERRES
    51   24   94 1    
    52   25   26 2    
    53   25   27 1    
    54   27   28 1    
    55   27   29 1    
    56   27   95 1    
    57   28   96 1    
    58   28   97 1    
    59   28   98 1    
    60   29   30 am   BACKBONE|DICT|INTERRES
    61   29   99 1    
    62   30   31 2    
    63   30   32 1    
    64   32   33 1    
    65   32   34 1    
    66   32  100 1    
    67   33  101 1    
    68   33  102 1    
    69   33  103 1    
    70   34   35 am   BACKBONE|DICT|INTERRES
    71   34  104 1    
    72   35   36 2    
    73   37   38 2    
    74   37   39 am   BACKBONE|DICT|INTERRES
    75   39   40 1    
    76   39  105 1    
    77   40   41 1    
    78   40   42 1    
    79   40  106 1    
    80   41  107 1    
    81   41  108 1    
    82   41  109 1    
    83   42   43 2    
    84   42   44 am   BACKBONE|DICT|INTERRES
    85   44   45 1    
    86   44  110 1    
    87   45   46 1    
    88   45   47 1    
    89   45  111 1    
    90   46  112 1    
    91   46  113 1    
    92   46  114 1    
    93   47   48 2    
    94   47   49 am   BACKBONE|DICT|INTERRES
    95   49   50 1    
    96   49  115 1    
    97   50   51 1    
    98   50   52 1    
    99   50  116 1    
   100   51  117 1    
   101   51  118 1    
   102   51  119 1    
   103   52   53 2    
   104   52   54 am   BACKBONE|DICT|INTERRES
   105   54   55 1    
   106   54  120 1    
   107   55   56 1    
   108   55   57 1    
   109   55  121 1    
   110   56  122 1    
   111   56  123 1    
   112   56  124 1    
   113   57   58 2    
   114   57   59 am   BACKBONE|DICT|INTERRES
   115   59   60 1    
   116   59  125 1    
   117   60   61 1    
   118   60   62 1    
   119   60  126 1    
   120   61  127 1    
   121   61  128 1    
   122   61  129 1    
   123   62   63 2    
   124   62   64 am   BACKBONE|DICT|INTERRES
   125   64   65 1    
   126   64  130 1    
   127   65   66 1    
   128   65   69 1    
   129   65  131 1    
   130   66   67 am   BACKBONE|DICT|INTERRES
   131   66   68 2    
   132   67  132 1    
   133   67  133 1    
   134   69   70 1    
   135   69  134 1    
   136   69  135 1    
   137   70   71 1    
   138   71  136 1    
   139   71  137 1    
@<TRIPOS>SUBSTRUCTURE
     1 UNK         1 GROUP             0       ****    0 ROOT    
