@<TRIPOS>MOLECULE
3R136
137   139    1
SMALL
USER_CHARGES


@<TRIPOS>ATOM
      1 CA         27.4518   21.0280    2.1262 C.3       0 UNK        -0.1979 
      2 C          27.9712   21.5548    0.7981 C.2       0 UNK         0.4864 
      3 O          27.2963   21.4029   -0.2219 O.2       0 UNK        -0.5359 
      4 N          29.1629   22.1689    0.7989 N.am      1 UNK        -0.4318 
      5 CA         29.8409   22.7185   -0.3818 C.3       1 UNK         0.0824 
      6 C6         31.2700   23.2185   -0.0602 C.3       12 UNK        -0.0944 
      7 S7         32.3424   21.8709    0.5423 S.3       12 UNK        -0.2672 
      8 C8         33.5074   22.7702    1.6264 C.3       12 UNK         0.0333 
      9 C9         32.8871   23.4135    2.8680 C.ar      12 UNK        -0.0807 
     10 C10        33.5080   24.5345    3.4274 C.ar      12 UNK        -0.0894 
     11 C11        32.9812   25.1560    4.5637 C.ar      12 UNK        -0.0804 
     12 C12        31.8172   24.6449    5.1483 C.ar      12 UNK        -0.0824 
     13 C13        31.1856   23.5220    4.6046 C.ar      12 UNK        -0.0762 
     14 C14        31.7346   22.9028    3.4780 C.ar      12 UNK        -0.0782 
     15 C15        29.9207   22.9558    5.2349 C.3       12 UNK         0.0230 
     16 S16        28.4188   23.5742    4.4065 S.3       12 UNK        -0.2608 
     17 C17        28.0608   25.1025    5.3366 C.3       12 UNK        -0.0989 
     18 CA         28.5965   26.3760    4.6296 C.3       5 UNK         0.0716 
     19 N          28.0626   26.5734    3.2741 N.am      5 UNK        -0.4135 
     20 C          26.8012   26.8959    2.9518 C.2       4 UNK         0.5031 
     21 O          25.8926   27.0222    3.7734 O.2       4 UNK        -0.5229 
     22 CA         26.5066   27.1563    1.4671 C.3       4 UNK         0.0329 
     23 CB         27.6444   27.9033    0.7440 C.3       4 UNK        -0.2001 
     24 N          26.2105   25.9067    0.7688 N.am      4 UNK        -0.4303 
     25 C          24.9949   25.3400    0.7035 C.2       3 UNK         0.5044 
     26 O          23.9983   25.8120    1.2539 O.2       3 UNK        -0.5152 
     27 CA         24.8501   24.0351   -0.1155 C.3       3 UNK         0.0319 
     28 CB         23.4422   23.8671   -0.7258 C.3       3 UNK        -0.2001 
     29 N          25.8838   23.8545   -1.1416 N.am      3 UNK        -0.4354 
     30 C          26.1732   24.6719   -2.1692 C.2       2 UNK         0.4964 
     31 O          25.4826   25.6418   -2.4852 O.2       2 UNK        -0.5047 
     32 CA         27.4738   24.3796   -2.9549 C.3       2 UNK         0.0288 
     33 CB         28.1431   25.6719   -3.4708 C.3       2 UNK        -0.2113 
     34 N          28.4508   23.5624   -2.2163 N.am      2 UNK        -0.4145 
     35 C          28.9865   23.8326   -1.0143 C.2       1 UNK         0.5006 
     36 O          28.7589   24.8602   -0.3733 O.2       1 UNK        -0.5103 
     37 C          28.4895   27.6430    5.5168 C.2       5 UNK         0.5055 
     38 O          28.3743   27.5282    6.7386 O.2       5 UNK        -0.5220 
     39 N          28.5367   28.8310    4.9003 N.am      6 UNK        -0.4450 
     40 CA         28.4119   30.1388    5.5382 C.3       6 UNK         0.0367 
     41 CB         26.9298   30.4214    5.8581 C.3       6 UNK        -0.1929 
     42 C          28.9922   31.2061    4.5993 C.2       6 UNK         0.5070 
     43 O          29.3280   30.8898    3.4569 O.2       6 UNK        -0.5237 
     44 N          29.0699   32.4494    5.0946 N.am      7 UNK        -0.4739 
     45 CA         29.5686   33.6487    4.4050 C.3       7 UNK         0.0276 
     46 CB         28.7210   33.9817    3.1571 C.3       7 UNK        -0.1927 
     47 C          31.0837   33.5972    4.1273 C.2       7 UNK         0.5013 
     48 O          31.5275   33.8896    3.0140 O.2       7 UNK        -0.5193 
     49 N          31.8498   33.2532    5.1743 N.am      8 UNK        -0.4253 
     50 CA         33.3164   33.2456    5.2353 C.3       8 UNK         0.0242 
     51 CB         33.8556   34.6949    5.2704 C.3       8 UNK        -0.2000 
     52 C          33.9362   32.3684    4.1319 C.2       8 UNK         0.4948 
     53 O          33.6853   31.1652    4.1186 O.2       8 UNK        -0.5275 
     54 N          34.7084   32.9714    3.2179 N.am      9 UNK        -0.4246 
     55 CA         35.3805   32.3015    2.0998 C.3       9 UNK         0.0261 
     56 CB         36.3033   33.3098    1.3953 C.3       9 UNK        -0.1959 
     57 C          34.4346   31.6356    1.0808 C.2       9 UNK         0.5033 
     58 O          34.8861   30.7668    0.3335 O.2       9 UNK        -0.5390 
     59 N          33.1534   32.0308    1.0617 N.am      10 UNK        -0.4215 
     60 CA         32.1255   31.4616    0.1877 C.3       10 UNK         0.0240 
     61 CB         31.0420   32.5239   -0.0660 C.3       10 UNK        -0.1982 
     62 C          31.5052   30.1556    0.7252 C.2       10 UNK         0.4970 
     63 O          30.5876   29.6435    0.0827 O.2       10 UNK        -0.4916 
     64 N          31.9800   29.6423    1.8717 N.am      11 UNK        -0.4279 
     65 CA         31.4353   28.4499    2.5399 C.3       11 UNK         0.1003 
     66 C          31.4727   27.1245    1.7274 C.2       11 UNK         0.5709 
     67 N          32.3740   26.9614    0.7658 N.am      11 UNK        -0.7358 
     68 O          30.6415   26.2531    1.9613 O.2       11 UNK        -0.4999 
     69 C69        31.9959   28.2882    3.9779 C.3       12 UNK        -0.0954 
     70 S70        33.7532   27.7961    4.0542 S.3       12 UNK        -0.2268 
     71 C71        33.6907   26.3589    5.1748 C.3       12 UNK         0.0203 
     72 H72        27.0234   20.0347    1.9961 H         1 UNK         0.0888 
     73 H73        28.2454   20.9549    2.8694 H         1 UNK         0.0888 
     74 H74        26.6754   21.6871    2.5138 H         1 UNK         0.0888 
     75 H75        29.6432   22.3158    1.6735 H         1 UNK         0.3017 
     76 H76        29.9312   21.9052   -1.1053 H         1 UNK         0.0873 
     77 H77        31.7381   23.6483   -0.9478 H         1 UNK         0.0745 
     78 H78        31.2320   24.0144    0.6847 H         1 UNK         0.0745 
     79 H79        34.0097   23.5302    1.0257 H         1 UNK         0.0705 
     80 H80        34.2807   22.0737    1.9525 H         1 UNK         0.0705 
     81 H81        34.4071   24.9321    2.9761 H         1 UNK         0.1334 
     82 H82        31.4038   25.1173    6.0288 H         1 UNK         0.1417 
     83 H83        31.2573   22.0199    3.0789 H         1 UNK         0.1562 
     84 H84        29.8881   23.1735    6.3033 H         1 UNK         0.0748 
     85 H85        29.9337   21.8677    5.1561 H         1 UNK         0.0748 
     86 H86        28.4822   25.0041    6.3383 H         1 UNK         0.0940 
     87 H87        26.9811   25.1736    5.4773 H         1 UNK         0.0940 
     88 H88        29.6623   26.2199    4.4861 H         1 UNK         0.0703 
     89 H89        28.7451   26.4401    2.5325 H         1 UNK         0.3081 
     90 H90        25.6287   27.8049    1.4252 H         1 UNK         0.0719 
     91 H91        27.9278   28.8103    1.2804 H         1 UNK         0.0809 
     92 H92        28.5407   27.2946    0.6314 H         1 UNK         0.0809 
     93 H93        27.3355   28.2070   -0.2563 H         1 UNK         0.0809 
     94 H94        26.9957   25.4518    0.3106 H         1 UNK         0.2990 
     95 H95        24.9967   23.2223    0.5972 H         1 UNK         0.0690 
     96 H96        23.1935   24.6866   -1.4008 H         1 UNK         0.0788 
     97 H97        22.6774   23.8433    0.0514 H         1 UNK         0.0788 
     98 H98        23.3611   22.9349   -1.2848 H         1 UNK         0.0788 
     99 H99        26.5003   23.0620   -0.9811 H         1 UNK         0.2993 
    100 H100       27.1723   23.7907   -3.8225 H         1 UNK         0.0949 
    101 H101       28.4078   26.3433   -2.6528 H         1 UNK         0.0767 
    102 H102       29.0517   25.4519   -4.0313 H         1 UNK         0.0767 
    103 H103       27.4782   26.2204   -4.1392 H         1 UNK         0.0767 
    104 H104       28.6594   22.6651   -2.6332 H         1 UNK         0.3013 
    105 H105       28.6851   28.8837    3.9006 H         1 UNK         0.3121 
    106 H106       28.9981   30.1439    6.4596 H         1 UNK         0.0774 
    107 H107       26.8022   31.3874    6.3474 H         1 UNK         0.0815 
    108 H108       26.3206   30.4296    4.9533 H         1 UNK         0.0815 
    109 H109       26.5156   29.6689    6.5293 H         1 UNK         0.0815 
    110 H110       28.7585   32.5975    6.0452 H         1 UNK         0.2987 
    111 H111       29.4327   34.4764    5.1033 H         1 UNK         0.0949 
    112 H112       27.6681   34.0959    3.4143 H         1 UNK         0.0806 
    113 H113       29.0458   34.9186    2.7030 H         1 UNK         0.0806 
    114 H114       28.7942   33.2102    2.3916 H         1 UNK         0.0806 
    115 H115       31.3791   32.9801    6.0253 H         1 UNK         0.3010 
    116 H116       33.5858   32.7714    6.1803 H         1 UNK         0.0829 
    117 H117       33.4469   35.2399    6.1214 H         1 UNK         0.0813 
    118 H118       34.9411   34.7125    5.3784 H         1 UNK         0.0813 
    119 H119       33.5973   35.2561    4.3714 H         1 UNK         0.0813 
    120 H120       34.8368   33.9703    3.2905 H         1 UNK         0.3038 
    121 H121       36.0008   31.5078    2.5215 H         1 UNK         0.0769 
    122 H122       37.0466   33.7166    2.0813 H         1 UNK         0.0811 
    123 H123       36.8476   32.8361    0.5769 H         1 UNK         0.0811 
    124 H124       35.7416   34.1437    0.9725 H         1 UNK         0.0811 
    125 H125       32.8402   32.7265    1.7317 H         1 UNK         0.3204 
    126 H126       32.5807   31.2208   -0.7753 H         1 UNK         0.0748 
    127 H127       31.4716   33.4515   -0.4445 H         1 UNK         0.0771 
    128 H128       30.3175   32.1783   -0.8046 H         1 UNK         0.0771 
    129 H129       30.4903   32.7550    0.8443 H         1 UNK         0.0771 
    130 H130       32.7204   30.1240    2.3662 H         1 UNK         0.2980 
    131 H131       30.3720   28.6588    2.6542 H         1 UNK         0.0545 
    132 H132       33.0496   27.6830    0.5738 H         1 UNK         0.3459 
    133 H133       32.3742   26.1071    0.2354 H         1 UNK         0.3459 
    134 H134       31.8790   29.2234    4.5270 H         1 UNK         0.0616 
    135 H135       31.4053   27.5622    4.5311 H         1 UNK         0.0616 
    136 H136       33.2173   26.6598    6.1107 H         1 UNK         0.0634 
    137 H137       34.7120   26.0718    5.4279 H         1 UNK         0.0634 
@<TRIPOS>BOND
     1    1    2 1    
     2    1   72 1    
     3    1   73 1    
     4    1   74 1    
     5    2    3 2    
     6    2    4 am   BACKBONE|DICT|INTERRES
     7    4    5 1    
     8    4   75 1    
     9    5    6 1    
    10    5   35 1    
    11    5   76 1    
    12    6    7 1    
    13    6   77 1    
    14    6   78 1    
    15    7    8 1    
    16    8    9 1    
    17    8   79 1    
    18    8   80 1    
    19    9   10 ar   
    20    9   14 ar   
    21   10   11 ar   
    22   10   81 1    
    23   11   12 ar   
    24   11   71 1    
    25   12   13 ar   
    26   12   82 1    
    27   13   14 ar   
    28   13   15 1    
    29   14   83 1    
    30   15   16 1    
    31   15   84 1    
    32   15   85 1    
    33   16   17 1    
    34   17   18 1    
    35   17   86 1    
    36   17   87 1    
    37   18   19 1    
    38   18   37 1    
    39   18   88 1    
    40   19   20 am   BACKBONE|DICT|INTERRES
    41   19   89 1    
    42   20   21 2    
    43   20   22 1    
    44   22   23 1    
    45   22   24 1    
    46   22   90 1    
    47   23   91 1    
    48   23   92 1    
    49   23   93 1    
    50   24   25 am   BACKBONE|DICT|INTERRES
    51   24   94 1    
    52   25   26 2    
    53   25   27 1    
    54   27   28 1    
    55   27   29 1    
    56   27   95 1    
    57   28   96 1    
    58   28   97 1    
    59   28   98 1    
    60   29   30 am   BACKBONE|DICT|INTERRES
    61   29   99 1    
    62   30   31 2    
    63   30   32 1    
    64   32   33 1    
    65   32   34 1    
    66   32  100 1    
    67   33  101 1    
    68   33  102 1    
    69   33  103 1    
    70   34   35 am   BACKBONE|DICT|INTERRES
    71   34  104 1    
    72   35   36 2    
    73   37   38 2    
    74   37   39 am   BACKBONE|DICT|INTERRES
    75   39   40 1    
    76   39  105 1    
    77   40   41 1    
    78   40   42 1    
    79   40  106 1    
    80   41  107 1    
    81   41  108 1    
    82   41  109 1    
    83   42   43 2    
    84   42   44 am   BACKBONE|DICT|INTERRES
    85   44   45 1    
    86   44  110 1    
    87   45   46 1    
    88   45   47 1    
    89   45  111 1    
    90   46  112 1    
    91   46  113 1    
    92   46  114 1    
    93   47   48 2    
    94   47   49 am   BACKBONE|DICT|INTERRES
    95   49   50 1    
    96   49  115 1    
    97   50   51 1    
    98   50   52 1    
    99   50  116 1    
   100   51  117 1    
   101   51  118 1    
   102   51  119 1    
   103   52   53 2    
   104   52   54 am   BACKBONE|DICT|INTERRES
   105   54   55 1    
   106   54  120 1    
   107   55   56 1    
   108   55   57 1    
   109   55  121 1    
   110   56  122 1    
   111   56  123 1    
   112   56  124 1    
   113   57   58 2    
   114   57   59 am   BACKBONE|DICT|INTERRES
   115   59   60 1    
   116   59  125 1    
   117   60   61 1    
   118   60   62 1    
   119   60  126 1    
   120   61  127 1    
   121   61  128 1    
   122   61  129 1    
   123   62   63 2    
   124   62   64 am   BACKBONE|DICT|INTERRES
   125   64   65 1    
   126   64  130 1    
   127   65   66 1    
   128   65   69 1    
   129   65  131 1    
   130   66   67 am   BACKBONE|DICT|INTERRES
   131   66   68 2    
   132   67  132 1    
   133   67  133 1    
   134   69   70 1    
   135   69  134 1    
   136   69  135 1    
   137   70   71 1    
   138   71  136 1    
   139   71  137 1    
@<TRIPOS>SUBSTRUCTURE
     1 UNK         1 GROUP             0       ****    0 ROOT    
