@<TRIPOS>MOLECULE
3R136
137   139    1
SMALL
USER_CHARGES


@<TRIPOS>ATOM
      1 CA         29.3167   19.8791   -4.5037 C.3       0 UNK        -0.1979 
      2 C          28.7140   20.4776   -3.2417 C.2       0 UNK         0.4864 
      3 O          27.8541   21.3567   -3.3298 O.2       0 UNK        -0.5359 
      4 N          29.1506   20.0078   -2.0655 N.am      1 UNK        -0.4318 
      5 CA         28.6922   20.4566   -0.7463 C.3       1 UNK         0.0824 
      6 C6         29.7386   20.1544    0.3606 C.3       12 UNK        -0.0944 
      7 S7         31.1091   21.3543    0.3229 S.3       12 UNK        -0.2672 
      8 C8         30.4119   22.5956    1.4573 C.3       12 UNK         0.0333 
      9 C9         31.2021   23.8937    1.4669 C.ar      12 UNK        -0.0807 
     10 C10        31.8640   24.3061    2.6274 C.ar      12 UNK        -0.0894 
     11 C11        32.5407   25.5283    2.6584 C.ar      12 UNK        -0.0804 
     12 C12        32.5676   26.3308    1.5160 C.ar      12 UNK        -0.0824 
     13 C13        31.8962   25.9374    0.3559 C.ar      12 UNK        -0.0762 
     14 C14        31.2152   24.7166    0.3359 C.ar      12 UNK        -0.0782 
     15 C15        31.9052   26.8336   -0.8731 C.3       12 UNK         0.0230 
     16 S16        30.3290   27.7216   -1.0854 S.3       12 UNK        -0.2608 
     17 C17        30.3014   28.8411    0.3574 C.3       12 UNK        -0.0989 
     18 CA         29.0327   28.6370    1.2217 C.3       5 UNK         0.0716 
     19 N          28.9715   27.2969    1.8129 N.am      5 UNK        -0.4135 
     20 C          27.8574   26.7408    2.3034 C.2       4 UNK         0.5031 
     21 O          26.7445   27.2742    2.2669 O.2       4 UNK        -0.5229 
     22 CA         28.0189   25.3673    2.9754 C.3       4 UNK         0.0329 
     23 CB         28.3273   25.5305    4.4725 C.3       4 UNK        -0.2001 
     24 N          26.8206   24.5391    2.8135 N.am      4 UNK        -0.4303 
     25 C          26.4530   23.9704    1.6591 C.2       3 UNK         0.5044 
     26 O          27.1206   24.0234    0.6212 O.2       3 UNK        -0.5152 
     27 CA         25.1200   23.2095    1.6567 C.3       3 UNK         0.0319 
     28 CB         23.9267   24.1685    1.4968 C.3       3 UNK        -0.2001 
     29 N          25.1626   22.2712    0.5426 N.am      3 UNK        -0.4354 
     30 C          24.4757   21.1304    0.4126 C.2       2 UNK         0.4964 
     31 O          23.6009   20.7591    1.1954 O.2       2 UNK        -0.5047 
     32 CA         24.8577   20.2386   -0.7856 C.3       2 UNK         0.0288 
     33 CB         23.9902   20.5718   -2.0101 C.3       2 UNK        -0.2113 
     34 N          26.2741   20.3822   -1.1389 N.am      2 UNK        -0.4145 
     35 C          27.2898   19.9059   -0.4064 C.2       1 UNK         0.5006 
     36 O          27.1418   19.0994    0.5144 O.2       1 UNK        -0.5103 
     37 C          28.9130   29.7284    2.3071 C.2       5 UNK         0.5055 
     38 O          29.2243   29.4843    3.4763 O.2       5 UNK        -0.5220 
     39 N          28.4593   30.9154    1.8831 N.am      6 UNK        -0.4450 
     40 CA         28.2327   32.0945    2.7222 C.3       6 UNK         0.0367 
     41 CB         27.1908   32.9950    2.0263 C.3       6 UNK        -0.1929 
     42 C          29.5405   32.8401    3.0650 C.2       6 UNK         0.5070 
     43 O          30.6189   32.2425    3.0628 O.2       6 UNK        -0.5237 
     44 N          29.4312   34.1463    3.3492 N.am      7 UNK        -0.4739 
     45 CA         30.4962   35.0496    3.8140 C.3       7 UNK         0.0276 
     46 CB         29.8965   36.4481    4.0343 C.3       7 UNK        -0.1927 
     47 C          31.7554   35.1421    2.9280 C.2       7 UNK         0.5013 
     48 O          32.7898   35.6006    3.4131 O.2       7 UNK        -0.5193 
     49 N          31.6668   34.6879    1.6697 N.am      8 UNK        -0.4253 
     50 CA         32.8079   34.4863    0.7717 C.3       8 UNK         0.0242 
     51 CB         32.2928   34.1314   -0.6327 C.3       8 UNK        -0.2000 
     52 C          33.7867   33.4065    1.2763 C.2       8 UNK         0.4948 
     53 O          34.9892   33.5321    1.0416 O.2       8 UNK        -0.5275 
     54 N          33.2589   32.3864    1.9675 N.am      9 UNK        -0.4246 
     55 CA         34.0275   31.3596    2.6726 C.3       9 UNK         0.0261 
     56 CB         33.4439   29.9741    2.3542 C.3       9 UNK        -0.1959 
     57 C          34.0026   31.6064    4.1881 C.2       9 UNK         0.5033 
     58 O          35.0335   31.4387    4.8401 O.2       9 UNK        -0.5390 
     59 N          32.8277   31.9906    4.7141 N.am      10 UNK        -0.4215 
     60 CA         32.5197   32.2771    6.1217 C.3       10 UNK         0.0240 
     61 CB         33.2977   33.5163    6.6141 C.3       10 UNK        -0.1982 
     62 C          32.6774   31.0616    7.0597 C.2       10 UNK         0.4970 
     63 O          32.8884   31.2428    8.2603 O.2       10 UNK        -0.4916 
     64 N          32.5597   29.8482    6.5060 N.am      11 UNK        -0.4279 
     65 CA         32.6560   28.5743    7.2337 C.3       11 UNK         0.1003 
     66 C          31.3709   28.1654    8.0124 C.2       11 UNK         0.5709 
     67 N          30.2402   28.8389    7.8338 N.am      11 UNK        -0.7358 
     68 O          31.4077   27.2306    8.8092 O.2       11 UNK        -0.4999 
     69 C69        33.1828   27.4396    6.3165 C.3       12 UNK        -0.0954 
     70 S70        32.1500   27.1421    4.8436 S.3       12 UNK        -0.2268 
     71 C71        33.2244   25.9976    3.9304 C.3       12 UNK         0.0203 
     72 H72        28.5370   19.4176   -5.1092 H         1 UNK         0.0888 
     73 H73        29.7932   20.6588   -5.0973 H         1 UNK         0.0888 
     74 H74        30.0653   19.1198   -4.2778 H         1 UNK         0.0888 
     75 H75        29.8473   19.2763   -2.0560 H         1 UNK         0.3017 
     76 H76        28.5676   21.5416   -0.7889 H         1 UNK         0.0873 
     77 H77        29.2957   20.1918    1.3582 H         1 UNK         0.0745 
     78 H78        30.1396   19.1450    0.2543 H         1 UNK         0.0745 
     79 H79        30.3553   22.1692    2.4602 H         1 UNK         0.0705 
     80 H80        29.3871   22.8157    1.1606 H         1 UNK         0.0705 
     81 H81        31.8370   23.6869    3.5138 H         1 UNK         0.1334 
     82 H82        33.0983   27.2714    1.5391 H         1 UNK         0.1417 
     83 H83        30.6856   24.4105   -0.5566 H         1 UNK         0.1562 
     84 H84        32.0891   26.2265   -1.7608 H         1 UNK         0.0748 
     85 H85        32.7227   27.5549   -0.8244 H         1 UNK         0.0748 
     86 H86        30.3501   29.8620   -0.0264 H         1 UNK         0.0940 
     87 H87        31.1992   28.7077    0.9589 H         1 UNK         0.0940 
     88 H88        28.1647   28.7416    0.5663 H         1 UNK         0.0703 
     89 H89        29.8509   26.8083    1.9010 H         1 UNK         0.3081 
     90 H90        28.8563   24.8512    2.5072 H         1 UNK         0.0719 
     91 H91        29.2267   26.1296    4.6221 H         1 UNK         0.0809 
     92 H92        27.5141   26.0303    5.0003 H         1 UNK         0.0809 
     93 H93        28.4996   24.5662    4.9508 H         1 UNK         0.0809 
     94 H94        26.1983   24.4837    3.6067 H         1 UNK         0.2990 
     95 H95        25.0302   22.6539    2.5927 H         1 UNK         0.0690 
     96 H96        22.9798   23.6283    1.4949 H         1 UNK         0.0788 
     97 H97        23.9904   24.7360    0.5674 H         1 UNK         0.0788 
     98 H98        23.8878   24.8872    2.3163 H         1 UNK         0.0788 
     99 H99        25.8826   22.4956   -0.1337 H         1 UNK         0.2993 
    100 H100       24.6719   19.2003   -0.5016 H         1 UNK         0.0949 
    101 H101       22.9302   20.4546   -1.7801 H         1 UNK         0.0767 
    102 H102       24.1405   21.5989   -2.3454 H         1 UNK         0.0767 
    103 H103       24.2152   19.9095   -2.8464 H         1 UNK         0.0767 
    104 H104       26.5063   20.9705   -1.9349 H         1 UNK         0.3013 
    105 H105       28.2598   31.0291    0.8998 H         1 UNK         0.3121 
    106 H106       27.8071   31.7589    3.6703 H         1 UNK         0.0774 
    107 H107       27.5897   33.4524    1.1197 H         1 UNK         0.0815 
    108 H108       26.3033   32.4265    1.7470 H         1 UNK         0.0815 
    109 H109       26.8479   33.7969    2.6810 H         1 UNK         0.0815 
    110 H110       28.5080   34.5533    3.3014 H         1 UNK         0.2987 
    111 H111       30.8312   34.6709    4.7815 H         1 UNK         0.0949 
    112 H112       29.0859   36.4242    4.7630 H         1 UNK         0.0806 
    113 H113       30.6474   37.1422    4.4151 H         1 UNK         0.0806 
    114 H114       29.5050   36.8689    3.1073 H         1 UNK         0.0806 
    115 H115       30.7708   34.3437    1.3575 H         1 UNK         0.3010 
    116 H116       33.3574   35.4282    0.7105 H         1 UNK         0.0829 
    117 H117       31.7176   33.2045   -0.6311 H         1 UNK         0.0813 
    118 H118       33.1221   33.9987   -1.3291 H         1 UNK         0.0813 
    119 H119       31.6581   34.9214   -1.0346 H         1 UNK         0.0813 
    120 H120       32.2559   32.3867    2.1331 H         1 UNK         0.3038 
    121 H121       35.0697   31.3729    2.3464 H         1 UNK         0.0769 
    122 H122       33.4873   29.7668    1.2850 H         1 UNK         0.0811 
    123 H123       32.4044   29.8880    2.6744 H         1 UNK         0.0811 
    124 H124       34.0073   29.1902    2.8623 H         1 UNK         0.0811 
    125 H125       32.0271   32.0552    4.0840 H         1 UNK         0.3204 
    126 H126       31.4585   32.5287    6.1450 H         1 UNK         0.0748 
    127 H127       34.3667   33.3167    6.6935 H         1 UNK         0.0771 
    128 H128       33.1656   34.3628    5.9404 H         1 UNK         0.0771 
    129 H129       32.9521   33.8318    7.5992 H         1 UNK         0.0771 
    130 H130       32.3602   29.7747    5.5196 H         1 UNK         0.2980 
    131 H131       33.4145   28.7086    8.0073 H         1 UNK         0.0545 
    132 H132       30.1958   29.5949    7.1705 H         1 UNK         0.3459 
    133 H133       29.4182   28.5682    8.3496 H         1 UNK         0.3459 
    134 H134       33.2807   26.5053    6.8725 H         1 UNK         0.0616 
    135 H135       34.1896   27.6913    5.9791 H         1 UNK         0.0616 
    136 H136       34.1653   26.4944    3.6885 H         1 UNK         0.0634 
    137 H137       33.4735   25.1467    4.5664 H         1 UNK         0.0634 
@<TRIPOS>BOND
     1    1    2 1    
     2    1   72 1    
     3    1   73 1    
     4    1   74 1    
     5    2    3 2    
     6    2    4 am   BACKBONE|DICT|INTERRES
     7    4    5 1    
     8    4   75 1    
     9    5    6 1    
    10    5   35 1    
    11    5   76 1    
    12    6    7 1    
    13    6   77 1    
    14    6   78 1    
    15    7    8 1    
    16    8    9 1    
    17    8   79 1    
    18    8   80 1    
    19    9   10 ar   
    20    9   14 ar   
    21   10   11 ar   
    22   10   81 1    
    23   11   12 ar   
    24   11   71 1    
    25   12   13 ar   
    26   12   82 1    
    27   13   14 ar   
    28   13   15 1    
    29   14   83 1    
    30   15   16 1    
    31   15   84 1    
    32   15   85 1    
    33   16   17 1    
    34   17   18 1    
    35   17   86 1    
    36   17   87 1    
    37   18   19 1    
    38   18   37 1    
    39   18   88 1    
    40   19   20 am   BACKBONE|DICT|INTERRES
    41   19   89 1    
    42   20   21 2    
    43   20   22 1    
    44   22   23 1    
    45   22   24 1    
    46   22   90 1    
    47   23   91 1    
    48   23   92 1    
    49   23   93 1    
    50   24   25 am   BACKBONE|DICT|INTERRES
    51   24   94 1    
    52   25   26 2    
    53   25   27 1    
    54   27   28 1    
    55   27   29 1    
    56   27   95 1    
    57   28   96 1    
    58   28   97 1    
    59   28   98 1    
    60   29   30 am   BACKBONE|DICT|INTERRES
    61   29   99 1    
    62   30   31 2    
    63   30   32 1    
    64   32   33 1    
    65   32   34 1    
    66   32  100 1    
    67   33  101 1    
    68   33  102 1    
    69   33  103 1    
    70   34   35 am   BACKBONE|DICT|INTERRES
    71   34  104 1    
    72   35   36 2    
    73   37   38 2    
    74   37   39 am   BACKBONE|DICT|INTERRES
    75   39   40 1    
    76   39  105 1    
    77   40   41 1    
    78   40   42 1    
    79   40  106 1    
    80   41  107 1    
    81   41  108 1    
    82   41  109 1    
    83   42   43 2    
    84   42   44 am   BACKBONE|DICT|INTERRES
    85   44   45 1    
    86   44  110 1    
    87   45   46 1    
    88   45   47 1    
    89   45  111 1    
    90   46  112 1    
    91   46  113 1    
    92   46  114 1    
    93   47   48 2    
    94   47   49 am   BACKBONE|DICT|INTERRES
    95   49   50 1    
    96   49  115 1    
    97   50   51 1    
    98   50   52 1    
    99   50  116 1    
   100   51  117 1    
   101   51  118 1    
   102   51  119 1    
   103   52   53 2    
   104   52   54 am   BACKBONE|DICT|INTERRES
   105   54   55 1    
   106   54  120 1    
   107   55   56 1    
   108   55   57 1    
   109   55  121 1    
   110   56  122 1    
   111   56  123 1    
   112   56  124 1    
   113   57   58 2    
   114   57   59 am   BACKBONE|DICT|INTERRES
   115   59   60 1    
   116   59  125 1    
   117   60   61 1    
   118   60   62 1    
   119   60  126 1    
   120   61  127 1    
   121   61  128 1    
   122   61  129 1    
   123   62   63 2    
   124   62   64 am   BACKBONE|DICT|INTERRES
   125   64   65 1    
   126   64  130 1    
   127   65   66 1    
   128   65   69 1    
   129   65  131 1    
   130   66   67 am   BACKBONE|DICT|INTERRES
   131   66   68 2    
   132   67  132 1    
   133   67  133 1    
   134   69   70 1    
   135   69  134 1    
   136   69  135 1    
   137   70   71 1    
   138   71  136 1    
   139   71  137 1    
@<TRIPOS>SUBSTRUCTURE
     1 UNK         1 GROUP             0       ****    0 ROOT    
