@<TRIPOS>MOLECULE
3R136
137   139    1
SMALL
USER_CHARGES


@<TRIPOS>ATOM
      1 CA         30.4354   22.2476   -0.2910 C.3       0 UNK        -0.1979 
      2 C          30.3517   23.4168   -1.2604 C.2       0 UNK         0.4864 
      3 O          30.5076   23.2294   -2.4688 O.2       0 UNK        -0.5359 
      4 N          30.0983   24.6254   -0.7447 N.am      1 UNK        -0.4318 
      5 CA         29.9258   25.8671   -1.5041 C.3       1 UNK         0.0824 
      6 C6         30.3545   27.1179   -0.6840 C.3       12 UNK        -0.0944 
      7 S7         29.7673   27.1634    1.0474 S.3       12 UNK        -0.2672 
      8 C8         31.2177   26.4930    1.9238 C.3       12 UNK         0.0333 
      9 C9         30.9007   26.2547    3.3911 C.ar      12 UNK        -0.0807 
     10 C10        31.4504   27.0808    4.3741 C.ar      12 UNK        -0.0894 
     11 C11        31.1266   26.8951    5.7204 C.ar      12 UNK        -0.0804 
     12 C12        30.2294   25.8846    6.0793 C.ar      12 UNK        -0.0824 
     13 C13        29.6809   25.0418    5.1065 C.ar      12 UNK        -0.0762 
     14 C14        30.0433   25.2155    3.7668 C.ar      12 UNK        -0.0782 
     15 C15        28.6913   23.9517    5.5085 C.3       12 UNK         0.0230 
     16 S16        27.0687   24.1031    4.6793 S.3       12 UNK        -0.2608 
     17 C17        26.6348   25.8483    4.9845 C.3       12 UNK        -0.0989 
     18 CA         26.8435   26.6969    3.7032 C.3       5 UNK         0.0716 
     19 N          25.6798   26.6927    2.8225 N.am      5 UNK        -0.4135 
     20 C          25.6130   26.0865    1.6339 C.2       4 UNK         0.5031 
     21 O          26.4558   25.2908    1.2133 O.2       4 UNK        -0.5229 
     22 CA         24.4152   26.4934    0.7578 C.3       4 UNK         0.0329 
     23 CB         24.5627   27.9495    0.2817 C.3       4 UNK        -0.2001 
     24 N          24.2978   25.6458   -0.4253 N.am      4 UNK        -0.4303 
     25 C          23.6941   24.4524   -0.4719 C.2       3 UNK         0.5044 
     26 O          23.1044   23.9448    0.4833 O.2       3 UNK        -0.5152 
     27 CA         23.7236   23.7072   -1.8216 C.3       3 UNK         0.0319 
     28 CB         22.3442   23.7674   -2.4990 C.3       3 UNK        -0.2001 
     29 N          24.7316   24.2315   -2.7503 N.am      3 UNK        -0.4354 
     30 C          26.0450   23.9833   -2.6611 C.2       2 UNK         0.4964 
     31 O          26.5346   23.2127   -1.8327 O.2       2 UNK        -0.5047 
     32 CA         26.9682   24.6833   -3.6780 C.3       2 UNK         0.0288 
     33 CB         26.3357   25.9009   -4.3933 C.3       2 UNK        -0.2113 
     34 N          28.2549   25.0225   -3.0622 N.am      2 UNK        -0.4145 
     35 C          28.5018   25.9273   -2.1017 C.2       1 UNK         0.5006 
     36 O          27.6750   26.7411   -1.6857 O.2       1 UNK        -0.5103 
     37 C          27.1413   28.1649    4.0345 C.2       5 UNK         0.5055 
     38 O          26.2125   28.9738    4.1113 O.2       5 UNK        -0.5220 
     39 N          28.4349   28.4726    4.2030 N.am      6 UNK        -0.4450 
     40 CA         29.0143   29.8020    4.4392 C.3       6 UNK         0.0367 
     41 CB         28.5484   30.3790    5.7922 C.3       6 UNK        -0.1929 
     42 C          28.8248   30.7912    3.2690 C.2       6 UNK         0.5070 
     43 O          28.9685   31.9985    3.4663 O.2       6 UNK        -0.5237 
     44 N          28.5414   30.2737    2.0638 N.am      7 UNK        -0.4739 
     45 CA         28.4690   31.0495    0.8208 C.3       7 UNK         0.0276 
     46 CB         27.6513   30.2717   -0.2214 C.3       7 UNK        -0.1927 
     47 C          29.8619   31.4135    0.2761 C.2       7 UNK         0.5013 
     48 O          29.9892   32.4012   -0.4484 O.2       7 UNK        -0.5193 
     49 N          30.8759   30.6331    0.6640 N.am      8 UNK        -0.4253 
     50 CA         32.2934   30.9399    0.5295 C.3       8 UNK         0.0242 
     51 CB         32.9546   29.9147   -0.4054 C.3       8 UNK        -0.2000 
     52 C          32.8946   30.8476    1.9344 C.2       8 UNK         0.4948 
     53 O          32.4530   30.0121    2.7291 O.2       8 UNK        -0.5275 
     54 N          33.9150   31.6656    2.2155 N.am      9 UNK        -0.4246 
     55 CA         34.5891   31.7659    3.5168 C.3       9 UNK         0.0261 
     56 CB         35.2897   33.1348    3.6095 C.3       9 UNK        -0.1959 
     57 C          35.5489   30.5924    3.8143 C.2       9 UNK         0.5033 
     58 O          36.6424   30.8100    4.3403 O.2       9 UNK        -0.5390 
     59 N          35.1240   29.3624    3.4958 N.am      10 UNK        -0.4215 
     60 CA         35.8839   28.1204    3.6810 C.3       10 UNK         0.0240 
     61 CB         35.1392   26.9611    2.9985 C.3       10 UNK        -0.1982 
     62 C          36.1735   27.7865    5.1560 C.2       10 UNK         0.4970 
     63 O          37.1631   27.1097    5.4374 O.2       10 UNK        -0.4916 
     64 N          35.3212   28.2822    6.0611 N.am      11 UNK        -0.4279 
     65 CA         35.4893   28.1971    7.5188 C.3       11 UNK         0.1003 
     66 C          36.4858   29.2431    8.1025 C.2       11 UNK         0.5709 
     67 N          37.0317   30.1693    7.3205 N.am      11 UNK        -0.7358 
     68 O          36.7808   29.2067    9.2948 O.2       11 UNK        -0.4999 
     69 C69        34.1221   28.2394    8.2540 C.3       12 UNK        -0.0954 
     70 S70        33.0166   26.8879    7.7232 S.3       12 UNK        -0.2268 
     71 C71        31.7454   27.7892    6.7832 C.3       12 UNK         0.0203 
     72 H72        30.3425   22.5709    0.7464 H         1 UNK         0.0888 
     73 H73        29.6374   21.5340   -0.4975 H         1 UNK         0.0888 
     74 H74        31.3911   21.7348   -0.4024 H         1 UNK         0.0888 
     75 H75        29.9075   24.7167    0.2426 H         1 UNK         0.3017 
     76 H76        30.6005   25.8323   -2.3628 H         1 UNK         0.0873 
     77 H77        31.4435   27.1674   -0.6715 H         1 UNK         0.0745 
     78 H78        30.0381   28.0347   -1.1843 H         1 UNK         0.0745 
     79 H79        32.0511   27.1891    1.8158 H         1 UNK         0.0705 
     80 H80        31.5369   25.5557    1.4676 H         1 UNK         0.0705 
     81 H81        32.1255   27.8757    4.0915 H         1 UNK         0.1334 
     82 H82        29.9693   25.7510    7.1207 H         1 UNK         0.1417 
     83 H83        29.6157   24.5704    3.0109 H         1 UNK         0.1562 
     84 H84        28.5292   23.9567    6.5875 H         1 UNK         0.0748 
     85 H85        29.1199   22.9776    5.2690 H         1 UNK         0.0748 
     86 H86        27.2375   26.2141    5.8183 H         1 UNK         0.0940 
     87 H87        25.5998   25.9051    5.3264 H         1 UNK         0.0940 
     88 H88        27.7057   26.3251    3.1498 H         1 UNK         0.0703 
     89 H89        24.9821   27.3842    3.0646 H         1 UNK         0.3081 
     90 H90        23.5051   26.4064    1.3554 H         1 UNK         0.0719 
     91 H91        25.4601   28.0779   -0.3252 H         1 UNK         0.0809 
     92 H92        23.7070   28.2584   -0.3190 H         1 UNK         0.0809 
     93 H93        24.6320   28.6435    1.1203 H         1 UNK         0.0809 
     94 H94        24.8237   25.9402   -1.2348 H         1 UNK         0.2990 
     95 H95        23.9530   22.6605   -1.6106 H         1 UNK         0.0690 
     96 H96        22.3300   23.1899   -3.4236 H         1 UNK         0.0788 
     97 H97        22.0546   24.7918   -2.7366 H         1 UNK         0.0788 
     98 H98        21.5717   23.3533   -1.8494 H         1 UNK         0.0788 
     99 H99        24.4057   24.8601   -3.4708 H         1 UNK         0.2993 
    100 H100       27.1912   23.9352   -4.4401 H         1 UNK         0.0949 
    101 H101       25.4979   25.6001   -5.0232 H         1 UNK         0.0767 
    102 H102       25.9700   26.6502   -3.6904 H         1 UNK         0.0767 
    103 H103       27.0595   26.3891   -5.0461 H         1 UNK         0.0767 
    104 H104       29.0020   24.3573   -3.2399 H         1 UNK         0.3013 
    105 H105       29.1135   27.7245    4.1195 H         1 UNK         0.3121 
    106 H106       30.0920   29.6489    4.5099 H         1 UNK         0.0774 
    107 H107       29.0992   31.2869    6.0408 H         1 UNK         0.0815 
    108 H108       27.4891   30.6366    5.7804 H         1 UNK         0.0815 
    109 H109       28.7141   29.6700    6.6032 H         1 UNK         0.0815 
    110 H110       28.4498   29.2707    1.9799 H         1 UNK         0.2987 
    111 H111       27.9486   31.9879    1.0257 H         1 UNK         0.0949 
    112 H112       28.0681   29.2836   -0.4166 H         1 UNK         0.0806 
    113 H113       26.6219   30.1432    0.1106 H         1 UNK         0.0806 
    114 H114       27.6178   30.8054   -1.1721 H         1 UNK         0.0806 
    115 H115       30.6739   29.8811    1.3100 H         1 UNK         0.3010 
    116 H116       32.4377   31.9487    0.1367 H         1 UNK         0.0829 
    117 H117       34.0044   30.1588   -0.5715 H         1 UNK         0.0813 
    118 H118       32.9175   28.9071    0.0093 H         1 UNK         0.0813 
    119 H119       32.4669   29.8947   -1.3801 H         1 UNK         0.0813 
    120 H120       34.2532   32.2836    1.4913 H         1 UNK         0.3038 
    121 H121       33.8231   31.7391    4.2949 H         1 UNK         0.0769 
    122 H122       35.7309   33.2852    4.5959 H         1 UNK         0.0811 
    123 H123       34.5879   33.9530    3.4468 H         1 UNK         0.0811 
    124 H124       36.0915   33.2273    2.8760 H         1 UNK         0.0811 
    125 H125       34.1860   29.2898    3.1106 H         1 UNK         0.3204 
    126 H126       36.8467   28.2490    3.1821 H         1 UNK         0.0748 
    127 H127       35.7265   26.0429    3.0443 H         1 UNK         0.0771 
    128 H128       34.1828   26.7555    3.4785 H         1 UNK         0.0771 
    129 H129       34.9508   27.1716    1.9455 H         1 UNK         0.0771 
    130 H130       34.5406   28.8296    5.7357 H         1 UNK         0.2980 
    131 H131       35.9366   27.2260    7.7395 H         1 UNK         0.0545 
    132 H132       36.8261   30.2166    6.3298 H         1 UNK         0.3459 
    133 H133       37.6768   30.8287    7.7256 H         1 UNK         0.3459 
    134 H134       34.2654   28.1315    9.3307 H         1 UNK         0.0616 
    135 H135       33.6335   29.2046    8.1101 H         1 UNK         0.0616 
    136 H136       32.1828   28.6740    6.3184 H         1 UNK         0.0634 
    137 H137       30.9742   28.1474    7.4667 H         1 UNK         0.0634 
@<TRIPOS>BOND
     1    1    2 1    
     2    1   72 1    
     3    1   73 1    
     4    1   74 1    
     5    2    3 2    
     6    2    4 am   BACKBONE|DICT|INTERRES
     7    4    5 1    
     8    4   75 1    
     9    5    6 1    
    10    5   35 1    
    11    5   76 1    
    12    6    7 1    
    13    6   77 1    
    14    6   78 1    
    15    7    8 1    
    16    8    9 1    
    17    8   79 1    
    18    8   80 1    
    19    9   10 ar   
    20    9   14 ar   
    21   10   11 ar   
    22   10   81 1    
    23   11   12 ar   
    24   11   71 1    
    25   12   13 ar   
    26   12   82 1    
    27   13   14 ar   
    28   13   15 1    
    29   14   83 1    
    30   15   16 1    
    31   15   84 1    
    32   15   85 1    
    33   16   17 1    
    34   17   18 1    
    35   17   86 1    
    36   17   87 1    
    37   18   19 1    
    38   18   37 1    
    39   18   88 1    
    40   19   20 am   BACKBONE|DICT|INTERRES
    41   19   89 1    
    42   20   21 2    
    43   20   22 1    
    44   22   23 1    
    45   22   24 1    
    46   22   90 1    
    47   23   91 1    
    48   23   92 1    
    49   23   93 1    
    50   24   25 am   BACKBONE|DICT|INTERRES
    51   24   94 1    
    52   25   26 2    
    53   25   27 1    
    54   27   28 1    
    55   27   29 1    
    56   27   95 1    
    57   28   96 1    
    58   28   97 1    
    59   28   98 1    
    60   29   30 am   BACKBONE|DICT|INTERRES
    61   29   99 1    
    62   30   31 2    
    63   30   32 1    
    64   32   33 1    
    65   32   34 1    
    66   32  100 1    
    67   33  101 1    
    68   33  102 1    
    69   33  103 1    
    70   34   35 am   BACKBONE|DICT|INTERRES
    71   34  104 1    
    72   35   36 2    
    73   37   38 2    
    74   37   39 am   BACKBONE|DICT|INTERRES
    75   39   40 1    
    76   39  105 1    
    77   40   41 1    
    78   40   42 1    
    79   40  106 1    
    80   41  107 1    
    81   41  108 1    
    82   41  109 1    
    83   42   43 2    
    84   42   44 am   BACKBONE|DICT|INTERRES
    85   44   45 1    
    86   44  110 1    
    87   45   46 1    
    88   45   47 1    
    89   45  111 1    
    90   46  112 1    
    91   46  113 1    
    92   46  114 1    
    93   47   48 2    
    94   47   49 am   BACKBONE|DICT|INTERRES
    95   49   50 1    
    96   49  115 1    
    97   50   51 1    
    98   50   52 1    
    99   50  116 1    
   100   51  117 1    
   101   51  118 1    
   102   51  119 1    
   103   52   53 2    
   104   52   54 am   BACKBONE|DICT|INTERRES
   105   54   55 1    
   106   54  120 1    
   107   55   56 1    
   108   55   57 1    
   109   55  121 1    
   110   56  122 1    
   111   56  123 1    
   112   56  124 1    
   113   57   58 2    
   114   57   59 am   BACKBONE|DICT|INTERRES
   115   59   60 1    
   116   59  125 1    
   117   60   61 1    
   118   60   62 1    
   119   60  126 1    
   120   61  127 1    
   121   61  128 1    
   122   61  129 1    
   123   62   63 2    
   124   62   64 am   BACKBONE|DICT|INTERRES
   125   64   65 1    
   126   64  130 1    
   127   65   66 1    
   128   65   69 1    
   129   65  131 1    
   130   66   67 am   BACKBONE|DICT|INTERRES
   131   66   68 2    
   132   67  132 1    
   133   67  133 1    
   134   69   70 1    
   135   69  134 1    
   136   69  135 1    
   137   70   71 1    
   138   71  136 1    
   139   71  137 1    
@<TRIPOS>SUBSTRUCTURE
     1 UNK         1 GROUP             0       ****    0 ROOT    
