@<TRIPOS>MOLECULE
3R136
137   139    1
SMALL
USER_CHARGES


@<TRIPOS>ATOM
      1 CA         26.4885   21.1838    0.7688 C.3       0 UNK        -0.1979 
      2 C          27.6785   21.3783   -0.1559 C.2       0 UNK         0.4864 
      3 O          27.7737   20.7037   -1.1824 O.2       0 UNK        -0.5359 
      4 N          28.5807   22.3012    0.1948 N.am      1 UNK        -0.4318 
      5 CA         29.7469   22.6735   -0.6059 C.3       1 UNK         0.0824 
      6 C6         30.9421   21.6911   -0.4207 C.3       12 UNK        -0.0944 
      7 S7         32.1143   22.0289    0.9406 S.3       12 UNK        -0.2672 
      8 C8         31.2928   21.2754    2.3820 C.3       12 UNK         0.0333 
      9 C9         30.5736   22.3042    3.2476 C.ar      12 UNK        -0.0807 
     10 C10        31.2602   23.4243    3.7295 C.ar      12 UNK        -0.0894 
     11 C11        30.6245   24.3450    4.5659 C.ar      12 UNK        -0.0804 
     12 C12        29.2910   24.1398    4.9287 C.ar      12 UNK        -0.0824 
     13 C13        28.5910   23.0273    4.4524 C.ar      12 UNK        -0.0762 
     14 C14        29.2382   22.1114    3.6158 C.ar      12 UNK        -0.0782 
     15 C15        27.1431   22.7998    4.8604 C.3       12 UNK         0.0230 
     16 S16        25.9845   23.3402    3.5662 S.3       12 UNK        -0.2608 
     17 C17        26.0126   25.1569    3.7408 C.3       12 UNK        -0.0989 
     18 CA         26.9857   25.8522    2.7489 C.3       5 UNK         0.0716 
     19 N          26.7832   25.5150    1.3373 N.am      5 UNK        -0.4135 
     20 C          25.6710   25.6654    0.6036 C.2       4 UNK         0.5031 
     21 O          24.5780   26.0194    1.0493 O.2       4 UNK        -0.5229 
     22 CA         25.8359   25.3823   -0.9040 C.3       4 UNK         0.0329 
     23 CB         24.5431   25.6181   -1.7140 C.3       4 UNK        -0.2001 
     24 N          26.9619   26.1267   -1.4863 N.am      4 UNK        -0.4303 
     25 C          27.1377   27.4587   -1.5044 C.2       3 UNK         0.5044 
     26 O          26.3145   28.2735   -1.0862 O.2       3 UNK        -0.5152 
     27 CA         28.4946   27.9434   -2.0388 C.3       3 UNK         0.0319 
     28 CB         28.6992   29.4667   -1.9005 C.3       3 UNK        -0.2001 
     29 N          29.5544   27.2064   -1.3515 N.am      3 UNK        -0.4354 
     30 C          30.7894   26.9828   -1.8094 C.2       2 UNK         0.4964 
     31 O          31.2332   27.4560   -2.8555 O.2       2 UNK        -0.5047 
     32 CA         31.6652   26.0285   -0.9785 C.3       2 UNK         0.0288 
     33 CB         31.9020   26.5442    0.4561 C.3       2 UNK        -0.2113 
     34 N          31.1591   24.6484   -0.9809 N.am      2 UNK        -0.4145 
     35 C          30.0505   24.1700   -0.3962 C.2       1 UNK         0.5006 
     36 O          29.2594   24.8659    0.2516 O.2       1 UNK        -0.5103 
     37 C          27.0079   27.3840    2.9024 C.2       5 UNK         0.5055 
     38 O          26.0008   27.9880    3.2791 O.2       5 UNK        -0.5220 
     39 N          28.1520   27.9837    2.5464 N.am      6 UNK        -0.4450 
     40 CA         28.3763   29.4298    2.5412 C.3       6 UNK         0.0367 
     41 CB         29.7385   29.7203    1.8881 C.3       6 UNK        -0.1929 
     42 C          28.3184   30.0423    3.9528 C.2       6 UNK         0.5070 
     43 O          28.7468   29.4130    4.9237 O.2       6 UNK        -0.5237 
     44 N          27.8253   31.2836    4.0384 N.am      7 UNK        -0.4739 
     45 CA         27.7932   32.0872    5.2625 C.3       7 UNK         0.0276 
     46 CB         26.6829   33.1474    5.1365 C.3       7 UNK        -0.1927 
     47 C          29.1786   32.7076    5.5155 C.2       7 UNK         0.5013 
     48 O          29.3737   33.8980    5.2607 O.2       7 UNK        -0.5193 
     49 N          30.1218   31.8614    5.9542 N.am      8 UNK        -0.4253 
     50 CA         31.5664   32.1104    6.0248 C.3       8 UNK         0.0242 
     51 CB         31.9092   33.2478    7.0145 C.3       8 UNK        -0.2000 
     52 C          32.1351   32.2926    4.6047 C.2       8 UNK         0.4948 
     53 O          31.7556   31.5210    3.7212 O.2       8 UNK        -0.5275 
     54 N          33.0301   33.2711    4.3987 N.am      9 UNK        -0.4246 
     55 CA         33.6768   33.6148    3.1242 C.3       9 UNK         0.0261 
     56 CB         32.6599   34.2642    2.1574 C.3       9 UNK        -0.1959 
     57 C          34.4180   32.4060    2.5229 C.2       9 UNK         0.5033 
     58 O          35.5149   32.0882    2.9837 O.2       9 UNK        -0.5390 
     59 N          33.7886   31.7188    1.5597 N.am      10 UNK        -0.4215 
     60 CA         34.2546   30.4591    0.9734 C.3       10 UNK         0.0240 
     61 CB         33.3452   30.0888   -0.2097 C.3       10 UNK        -0.1982 
     62 C          34.3502   29.2984    1.9865 C.2       10 UNK         0.4970 
     63 O          35.1983   28.4242    1.8064 O.2       10 UNK        -0.4916 
     64 N          33.5186   29.3248    3.0379 N.am      11 UNK        -0.4279 
     65 CA         33.6276   28.4434    4.2129 C.3       11 UNK         0.1003 
     66 C          34.6836   28.9162    5.2581 C.2       11 UNK         0.5709 
     67 N          35.3638   30.0440    5.0855 N.am      11 UNK        -0.7358 
     68 O          34.9064   28.2302    6.2527 O.2       11 UNK        -0.4999 
     69 C69        32.2422   28.1977    4.8739 C.3       12 UNK        -0.0954 
     70 S70        31.2534   26.9649    3.9677 S.3       12 UNK        -0.2268 
     71 C71        31.3868   25.5475    5.0956 C.3       12 UNK         0.0203 
     72 H72        25.8798   20.3403    0.4439 H         1 UNK         0.0888 
     73 H73        26.8169   20.9860    1.7880 H         1 UNK         0.0888 
     74 H74        25.8592   22.0734    0.7709 H         1 UNK         0.0888 
     75 H75        28.4530   22.8626    1.0268 H         1 UNK         0.3017 
     76 H76        29.4429   22.6104   -1.6534 H         1 UNK         0.0873 
     77 H77        30.5841   20.6640   -0.3355 H         1 UNK         0.0745 
     78 H78        31.5365   21.6948   -1.3357 H         1 UNK         0.0745 
     79 H79        32.0511   20.7844    2.9931 H         1 UNK         0.0705 
     80 H80        30.6112   20.4899    2.0525 H         1 UNK         0.0705 
     81 H81        32.2956   23.5770    3.4567 H         1 UNK         0.1334 
     82 H82        28.7985   24.8489    5.5801 H         1 UNK         0.1417 
     83 H83        28.7040   21.2393    3.2654 H         1 UNK         0.1562 
     84 H84        26.9159   23.3081    5.7988 H         1 UNK         0.0748 
     85 H85        26.9838   21.7370    5.0487 H         1 UNK         0.0748 
     86 H86        26.2734   25.4154    4.7684 H         1 UNK         0.0940 
     87 H87        24.9929   25.5184    3.5980 H         1 UNK         0.0940 
     88 H88        27.9908   25.5018    2.9826 H         1 UNK         0.0703 
     89 H89        27.6360   25.2421    0.8525 H         1 UNK         0.3081 
     90 H90        26.0869   24.3237   -0.9898 H         1 UNK         0.0719 
     91 H91        24.2069   26.6536   -1.6507 H         1 UNK         0.0809 
     92 H92        24.6847   25.3753   -2.7669 H         1 UNK         0.0809 
     93 H93        23.7316   24.9908   -1.3432 H         1 UNK         0.0809 
     94 H94        27.7088   25.5571   -1.8578 H         1 UNK         0.2990 
     95 H95        28.5258   27.6886   -3.1003 H         1 UNK         0.0690 
     96 H96        29.6885   29.7741   -2.2393 H         1 UNK         0.0788 
     97 H97        28.5756   29.8017   -0.8715 H         1 UNK         0.0788 
     98 H98        27.9694   30.0086   -2.5032 H         1 UNK         0.0788 
     99 H99        29.2791   26.7028   -0.5146 H         1 UNK         0.2993 
    100 H100       32.6391   25.9902   -1.4697 H         1 UNK         0.0949 
    101 H101       30.9761   26.6534    1.0188 H         1 UNK         0.0767 
    102 H102       32.5498   25.8701    1.0170 H         1 UNK         0.0767 
    103 H103       32.3853   27.5183    0.4474 H         1 UNK         0.0767 
    104 H104       31.7273   23.9942   -1.5010 H         1 UNK         0.3013 
    105 H105       28.9517   27.4088    2.3260 H         1 UNK         0.3121 
    106 H106       27.5921   29.8776    1.9269 H         1 UNK         0.0774 
    107 H107       29.8680   30.7896    1.7169 H         1 UNK         0.0815 
    108 H108       30.5637   29.3978    2.5218 H         1 UNK         0.0815 
    109 H109       29.8486   29.2178    0.9286 H         1 UNK         0.0815 
    110 H110       27.5314   31.7490    3.1914 H         1 UNK         0.2987 
    111 H111       27.5487   31.4467    6.1134 H         1 UNK         0.0949 
    112 H112       26.8468   33.8107    4.2862 H         1 UNK         0.0806 
    113 H113       25.7041   32.6830    5.0151 H         1 UNK         0.0806 
    114 H114       26.6365   33.7698    6.0311 H         1 UNK         0.0806 
    115 H115       29.8485   30.8857    6.0090 H         1 UNK         0.3010 
    116 H116       32.0134   31.1935    6.4115 H         1 UNK         0.0829 
    117 H117       31.4357   33.0786    7.9817 H         1 UNK         0.0813 
    118 H118       32.9833   33.3033    7.1952 H         1 UNK         0.0813 
    119 H119       31.5821   34.2242    6.6554 H         1 UNK         0.0813 
    120 H120       33.3044   33.8329    5.1923 H         1 UNK         0.3038 
    121 H121       34.4399   34.3617    3.3490 H         1 UNK         0.0769 
    122 H122       33.1260   34.5116    1.2026 H         1 UNK         0.0811 
    123 H123       32.2721   35.1945    2.5727 H         1 UNK         0.0811 
    124 H124       31.8034   33.6208    1.9536 H         1 UNK         0.0811 
    125 H125       32.8649   32.0288    1.2946 H         1 UNK         0.3204 
    126 H126       35.2611   30.6323    0.5866 H         1 UNK         0.0748 
    127 H127       33.6909   29.1765   -0.6978 H         1 UNK         0.0771 
    128 H128       32.3144   29.9251    0.1069 H         1 UNK         0.0771 
    129 H129       33.3412   30.8729   -0.9671 H         1 UNK         0.0771 
    130 H130       32.8582   30.0930    3.1266 H         1 UNK         0.2980 
    131 H131       34.0009   27.4752    3.8737 H         1 UNK         0.0545 
    132 H132       36.0438   30.3063    5.7806 H         1 UNK         0.3459 
    133 H133       35.2545   30.6194    4.2579 H         1 UNK         0.3459 
    134 H134       31.6689   29.1231    4.9306 H         1 UNK         0.0616 
    135 H135       32.3410   27.8564    5.9058 H         1 UNK         0.0616 
    136 H136       32.4393   25.2946    5.2335 H         1 UNK         0.0634 
    137 H137       31.0032   25.8291    6.0775 H         1 UNK         0.0634 
@<TRIPOS>BOND
     1    1    2 1    
     2    1   72 1    
     3    1   73 1    
     4    1   74 1    
     5    2    3 2    
     6    2    4 am   BACKBONE|DICT|INTERRES
     7    4    5 1    
     8    4   75 1    
     9    5    6 1    
    10    5   35 1    
    11    5   76 1    
    12    6    7 1    
    13    6   77 1    
    14    6   78 1    
    15    7    8 1    
    16    8    9 1    
    17    8   79 1    
    18    8   80 1    
    19    9   10 ar   
    20    9   14 ar   
    21   10   11 ar   
    22   10   81 1    
    23   11   12 ar   
    24   11   71 1    
    25   12   13 ar   
    26   12   82 1    
    27   13   14 ar   
    28   13   15 1    
    29   14   83 1    
    30   15   16 1    
    31   15   84 1    
    32   15   85 1    
    33   16   17 1    
    34   17   18 1    
    35   17   86 1    
    36   17   87 1    
    37   18   19 1    
    38   18   37 1    
    39   18   88 1    
    40   19   20 am   BACKBONE|DICT|INTERRES
    41   19   89 1    
    42   20   21 2    
    43   20   22 1    
    44   22   23 1    
    45   22   24 1    
    46   22   90 1    
    47   23   91 1    
    48   23   92 1    
    49   23   93 1    
    50   24   25 am   BACKBONE|DICT|INTERRES
    51   24   94 1    
    52   25   26 2    
    53   25   27 1    
    54   27   28 1    
    55   27   29 1    
    56   27   95 1    
    57   28   96 1    
    58   28   97 1    
    59   28   98 1    
    60   29   30 am   BACKBONE|DICT|INTERRES
    61   29   99 1    
    62   30   31 2    
    63   30   32 1    
    64   32   33 1    
    65   32   34 1    
    66   32  100 1    
    67   33  101 1    
    68   33  102 1    
    69   33  103 1    
    70   34   35 am   BACKBONE|DICT|INTERRES
    71   34  104 1    
    72   35   36 2    
    73   37   38 2    
    74   37   39 am   BACKBONE|DICT|INTERRES
    75   39   40 1    
    76   39  105 1    
    77   40   41 1    
    78   40   42 1    
    79   40  106 1    
    80   41  107 1    
    81   41  108 1    
    82   41  109 1    
    83   42   43 2    
    84   42   44 am   BACKBONE|DICT|INTERRES
    85   44   45 1    
    86   44  110 1    
    87   45   46 1    
    88   45   47 1    
    89   45  111 1    
    90   46  112 1    
    91   46  113 1    
    92   46  114 1    
    93   47   48 2    
    94   47   49 am   BACKBONE|DICT|INTERRES
    95   49   50 1    
    96   49  115 1    
    97   50   51 1    
    98   50   52 1    
    99   50  116 1    
   100   51  117 1    
   101   51  118 1    
   102   51  119 1    
   103   52   53 2    
   104   52   54 am   BACKBONE|DICT|INTERRES
   105   54   55 1    
   106   54  120 1    
   107   55   56 1    
   108   55   57 1    
   109   55  121 1    
   110   56  122 1    
   111   56  123 1    
   112   56  124 1    
   113   57   58 2    
   114   57   59 am   BACKBONE|DICT|INTERRES
   115   59   60 1    
   116   59  125 1    
   117   60   61 1    
   118   60   62 1    
   119   60  126 1    
   120   61  127 1    
   121   61  128 1    
   122   61  129 1    
   123   62   63 2    
   124   62   64 am   BACKBONE|DICT|INTERRES
   125   64   65 1    
   126   64  130 1    
   127   65   66 1    
   128   65   69 1    
   129   65  131 1    
   130   66   67 am   BACKBONE|DICT|INTERRES
   131   66   68 2    
   132   67  132 1    
   133   67  133 1    
   134   69   70 1    
   135   69  134 1    
   136   69  135 1    
   137   70   71 1    
   138   71  136 1    
   139   71  137 1    
@<TRIPOS>SUBSTRUCTURE
     1 UNK         1 GROUP             0       ****    0 ROOT    
