@<TRIPOS>MOLECULE
3R136
137   139    1
SMALL
USER_CHARGES


@<TRIPOS>ATOM
      1 CA         26.4383   24.5331   -1.4300 C.3       0 UNK        -0.1979 
      2 C          27.2743   24.2961   -0.1818 C.2       0 UNK         0.4864 
      3 O          27.6110   25.2543    0.5246 O.2       0 UNK        -0.5359 
      4 N          27.6238   23.0300    0.0806 N.am      1 UNK        -0.4318 
      5 CA         28.3646   22.5886    1.2646 C.3       1 UNK         0.0824 
      6 C6         28.7570   21.0909    1.1953 C.3       12 UNK        -0.0944 
      7 S7         29.6876   20.6461   -0.3090 S.3       12 UNK        -0.2672 
      8 C8         31.4059   20.6237    0.2941 C.3       12 UNK         0.0333 
      9 C9         32.0000   22.0228    0.3642 C.ar      12 UNK        -0.0807 
     10 C10        32.3053   22.6121    1.5966 C.ar      12 UNK        -0.0894 
     11 C11        32.8856   23.8847    1.6470 C.ar      12 UNK        -0.0804 
     12 C12        33.1381   24.5707    0.4567 C.ar      12 UNK        -0.0824 
     13 C13        32.8238   24.0002   -0.7785 C.ar      12 UNK        -0.0762 
     14 C14        32.2706   22.7179   -0.8188 C.ar      12 UNK        -0.0782 
     15 C15        33.0687   24.7841   -2.0613 C.3       12 UNK         0.0230 
     16 S16        31.5552   25.0668   -3.0448 S.3       12 UNK        -0.2608 
     17 C17        30.3054   25.5500   -1.8035 C.3       12 UNK        -0.0989 
     18 CA         30.1119   27.0770   -1.6636 C.3       5 UNK         0.0716 
     19 N          28.8268   27.3676   -1.0307 N.am      5 UNK        -0.4135 
     20 C          28.1853   28.5405   -1.1022 C.2       4 UNK         0.5031 
     21 O          28.5172   29.4546   -1.8577 O.2       4 UNK        -0.5229 
     22 CA         26.9856   28.7449   -0.1654 C.3       4 UNK         0.0329 
     23 CB         25.6720   28.3176   -0.8392 C.3       4 UNK        -0.2001 
     24 N          27.1549   28.0195    1.0994 N.am      4 UNK        -0.4303 
     25 C          27.0726   28.5916    2.3076 C.2       3 UNK         0.5044 
     26 O          26.7522   29.7697    2.4742 O.2       3 UNK        -0.5152 
     27 CA         27.3692   27.7390    3.5534 C.3       3 UNK         0.0319 
     28 CB         26.0976   27.5499    4.4009 C.3       3 UNK        -0.2001 
     29 N          27.9609   26.4276    3.2682 N.am      3 UNK        -0.4354 
     30 C          28.8224   25.7964    4.0797 C.2       2 UNK         0.4964 
     31 O          29.2677   26.2750    5.1240 O.2       2 UNK        -0.5047 
     32 CA         29.1920   24.3604    3.6818 C.3       2 UNK         0.0288 
     33 CB         30.0737   23.6443    4.7245 C.3       2 UNK        -0.2113 
     34 N          27.9494   23.6024    3.5383 N.am      2 UNK        -0.4145 
     35 C          27.5066   22.8457    2.5274 C.2       1 UNK         0.5006 
     36 O          26.3890   22.3294    2.5788 O.2       1 UNK        -0.5103 
     37 C          31.2256   27.7274   -0.8187 C.2       5 UNK         0.5055 
     38 O          31.1525   27.6688    0.4094 O.2       5 UNK        -0.5220 
     39 N          32.2235   28.3261   -1.4858 N.am      6 UNK        -0.4450 
     40 CA         33.2934   29.1466   -0.9029 C.3       6 UNK         0.0367 
     41 CB         34.2354   28.3110   -0.0035 C.3       6 UNK        -0.1929 
     42 C          32.7129   30.4060   -0.2271 C.2       6 UNK         0.5070 
     43 O          32.0292   31.1772   -0.9030 O.2       6 UNK        -0.5237 
     44 N          33.0046   30.6170    1.0628 N.am      7 UNK        -0.4739 
     45 CA         32.4757   31.7266    1.8577 C.3       7 UNK         0.0276 
     46 CB         33.3023   31.8687    3.1455 C.3       7 UNK        -0.1927 
     47 C          30.9828   31.5323    2.1785 C.2       7 UNK         0.5013 
     48 O          30.5536   30.4125    2.4637 O.2       7 UNK        -0.5193 
     49 N          30.2245   32.6342    2.1343 N.am      8 UNK        -0.4253 
     50 CA         28.7927   32.6619    2.4316 C.3       8 UNK         0.0242 
     51 CB         28.1974   33.9813    1.9134 C.3       8 UNK        -0.2000 
     52 C          28.5163   32.5043    3.9357 C.2       8 UNK         0.4948 
     53 O          29.3211   32.9447    4.7594 O.2       8 UNK        -0.5275 
     54 N          27.3685   31.8958    4.2568 N.am      9 UNK        -0.4246 
     55 CA         26.8088   31.6067    5.5848 C.3       9 UNK         0.0261 
     56 CB         26.6752   32.8729    6.4541 C.3       9 UNK        -0.1959 
     57 C          27.5297   30.4761    6.3379 C.2       9 UNK         0.5033 
     58 O          26.8548   29.6767    6.9876 O.2       9 UNK        -0.5390 
     59 N          28.8583   30.3984    6.2216 N.am      10 UNK        -0.4215 
     60 CA         29.6941   29.3161    6.7276 C.3       10 UNK         0.0240 
     61 CB         29.8825   29.4426    8.2520 C.3       10 UNK        -0.1982 
     62 C          31.0467   29.3716    6.0122 C.2       10 UNK         0.4970 
     63 O          31.5542   30.4716    5.7844 O.2       10 UNK        -0.4916 
     64 N          31.6324   28.1997    5.7336 N.am      11 UNK        -0.4279 
     65 CA         33.0102   28.0600    5.2248 C.3       11 UNK         0.1003 
     66 C          34.1162   28.5845    6.1898 C.2       11 UNK         0.5709 
     67 N          33.8700   28.6927    7.4906 N.am      11 UNK        -0.7358 
     68 O          35.2178   28.8987    5.7456 O.2       11 UNK        -0.4999 
     69 C69        33.3295   26.6020    4.8012 C.3       12 UNK        -0.0954 
     70 S70        32.4464   26.0855    3.2975 S.3       12 UNK        -0.2268 
     71 C71        33.2946   24.5060    2.9753 C.3       12 UNK         0.0203 
     72 H72        25.4260   24.8227   -1.1506 H         1 UNK         0.0888 
     73 H73        26.3748   23.6393   -2.0505 H         1 UNK         0.0888 
     74 H74        26.8703   25.3293   -2.0348 H         1 UNK         0.0888 
     75 H75        27.3214   22.2899   -0.5361 H         1 UNK         0.3017 
     76 H76        29.2906   23.1557    1.2705 H         1 UNK         0.0873 
     77 H77        27.8663   20.4595    1.2184 H         1 UNK         0.0745 
     78 H78        29.3417   20.8131    2.0743 H         1 UNK         0.0745 
     79 H79        31.4575   20.1209    1.2610 H         1 UNK         0.0705 
     80 H80        32.0055   20.0219   -0.3903 H         1 UNK         0.0705 
     81 H81        32.1128   22.0718    2.5132 H         1 UNK         0.1334 
     82 H82        33.5756   25.5572    0.4999 H         1 UNK         0.1417 
     83 H83        32.0288   22.2689   -1.7729 H         1 UNK         0.1562 
     84 H84        33.7906   24.2439   -2.6751 H         1 UNK         0.0748 
     85 H85        33.5229   25.7504   -1.8420 H         1 UNK         0.0748 
     86 H86        30.4837   25.0838   -0.8336 H         1 UNK         0.0940 
     87 H87        29.3759   25.1048   -2.1592 H         1 UNK         0.0940 
     88 H88        30.1084   27.5239   -2.6604 H         1 UNK         0.0703 
     89 H89        28.4985   26.6677   -0.3749 H         1 UNK         0.3081 
     90 H90        26.9292   29.8200    0.0184 H         1 UNK         0.0719 
     91 H91        25.6432   27.2464   -1.0296 H         1 UNK         0.0809 
     92 H92        24.8128   28.5684   -0.2170 H         1 UNK         0.0809 
     93 H93        25.5389   28.8254   -1.7955 H         1 UNK         0.0809 
     94 H94        27.3785   27.0328    1.0256 H         1 UNK         0.2990 
     95 H95        28.0848   28.3250    4.1339 H         1 UNK         0.0690 
     96 H96        26.3284   27.0905    5.3622 H         1 UNK         0.0788 
     97 H97        25.3659   26.9212    3.8925 H         1 UNK         0.0788 
     98 H98        25.6169   28.5058    4.6132 H         1 UNK         0.0788 
     99 H99        27.6583   25.9510    2.4253 H         1 UNK         0.2993 
    100 H100       29.7595   24.4628    2.7596 H         1 UNK         0.0949 
    101 H101       30.3917   22.6654    4.3663 H         1 UNK         0.0767 
    102 H102       30.9731   24.2154    4.9505 H         1 UNK         0.0767 
    103 H103       29.5438   23.4995    5.6667 H         1 UNK         0.0767 
    104 H104       27.3089   23.7340    4.3085 H         1 UNK         0.3013 
    105 H105       32.1782   28.3348   -2.4955 H         1 UNK         0.3121 
    106 H106       33.8891   29.5087   -1.7423 H         1 UNK         0.0774 
    107 H107       34.6591   27.4721   -0.5542 H         1 UNK         0.0815 
    108 H108       33.7275   27.9122    0.8752 H         1 UNK         0.0815 
    109 H109       35.0768   28.9104    0.3464 H         1 UNK         0.0815 
    110 H110       33.5185   29.9056    1.5608 H         1 UNK         0.2987 
    111 H111       32.5917   32.6441    1.2759 H         1 UNK         0.0949 
    112 H112       33.2707   30.9608    3.7466 H         1 UNK         0.0806 
    113 H113       34.3468   32.0907    2.9266 H         1 UNK         0.0806 
    114 H114       32.9204   32.6794    3.7677 H         1 UNK         0.0806 
    115 H115       30.6611   33.5232    1.9394 H         1 UNK         0.3010 
    116 H116       28.3217   31.8352    1.8955 H         1 UNK         0.0829 
    117 H117       28.3536   34.0940    0.8403 H         1 UNK         0.0813 
    118 H118       27.1211   34.0191    2.0877 H         1 UNK         0.0813 
    119 H119       28.6378   34.8462    2.4114 H         1 UNK         0.0813 
    120 H120       26.8656   31.4490    3.4935 H         1 UNK         0.3038 
    121 H121       25.7983   31.2443    5.3888 H         1 UNK         0.0769 
    122 H122       27.6453   33.2764    6.7449 H         1 UNK         0.0811 
    123 H123       26.1315   32.6530    7.3737 H         1 UNK         0.0811 
    124 H124       26.1268   33.6570    5.9323 H         1 UNK         0.0811 
    125 H125       29.3491   31.1157    5.6916 H         1 UNK         0.3204 
    126 H126       29.2046   28.3681    6.5058 H         1 UNK         0.0748 
    127 H127       28.9318   29.3767    8.7810 H         1 UNK         0.0771 
    128 H128       30.5175   28.6430    8.6349 H         1 UNK         0.0771 
    129 H129       30.3498   30.3910    8.5209 H         1 UNK         0.0771 
    130 H130       31.1147   27.3423    5.8800 H         1 UNK         0.2980 
    131 H131       33.0777   28.6827    4.3313 H         1 UNK         0.0545 
    132 H132       34.5938   29.0364    8.1017 H         1 UNK         0.3459 
    133 H133       32.9733   28.4324    7.8662 H         1 UNK         0.3459 
    134 H134       34.3959   26.4867    4.5957 H         1 UNK         0.0616 
    135 H135       33.0963   25.9056    5.6085 H         1 UNK         0.0616 
    136 H136       33.0992   23.8210    3.8013 H         1 UNK         0.0634 
    137 H137       34.3723   24.6737    2.9607 H         1 UNK         0.0634 
@<TRIPOS>BOND
     1    1    2 1    
     2    1   72 1    
     3    1   73 1    
     4    1   74 1    
     5    2    3 2    
     6    2    4 am   BACKBONE|DICT|INTERRES
     7    4    5 1    
     8    4   75 1    
     9    5    6 1    
    10    5   35 1    
    11    5   76 1    
    12    6    7 1    
    13    6   77 1    
    14    6   78 1    
    15    7    8 1    
    16    8    9 1    
    17    8   79 1    
    18    8   80 1    
    19    9   10 ar   
    20    9   14 ar   
    21   10   11 ar   
    22   10   81 1    
    23   11   12 ar   
    24   11   71 1    
    25   12   13 ar   
    26   12   82 1    
    27   13   14 ar   
    28   13   15 1    
    29   14   83 1    
    30   15   16 1    
    31   15   84 1    
    32   15   85 1    
    33   16   17 1    
    34   17   18 1    
    35   17   86 1    
    36   17   87 1    
    37   18   19 1    
    38   18   37 1    
    39   18   88 1    
    40   19   20 am   BACKBONE|DICT|INTERRES
    41   19   89 1    
    42   20   21 2    
    43   20   22 1    
    44   22   23 1    
    45   22   24 1    
    46   22   90 1    
    47   23   91 1    
    48   23   92 1    
    49   23   93 1    
    50   24   25 am   BACKBONE|DICT|INTERRES
    51   24   94 1    
    52   25   26 2    
    53   25   27 1    
    54   27   28 1    
    55   27   29 1    
    56   27   95 1    
    57   28   96 1    
    58   28   97 1    
    59   28   98 1    
    60   29   30 am   BACKBONE|DICT|INTERRES
    61   29   99 1    
    62   30   31 2    
    63   30   32 1    
    64   32   33 1    
    65   32   34 1    
    66   32  100 1    
    67   33  101 1    
    68   33  102 1    
    69   33  103 1    
    70   34   35 am   BACKBONE|DICT|INTERRES
    71   34  104 1    
    72   35   36 2    
    73   37   38 2    
    74   37   39 am   BACKBONE|DICT|INTERRES
    75   39   40 1    
    76   39  105 1    
    77   40   41 1    
    78   40   42 1    
    79   40  106 1    
    80   41  107 1    
    81   41  108 1    
    82   41  109 1    
    83   42   43 2    
    84   42   44 am   BACKBONE|DICT|INTERRES
    85   44   45 1    
    86   44  110 1    
    87   45   46 1    
    88   45   47 1    
    89   45  111 1    
    90   46  112 1    
    91   46  113 1    
    92   46  114 1    
    93   47   48 2    
    94   47   49 am   BACKBONE|DICT|INTERRES
    95   49   50 1    
    96   49  115 1    
    97   50   51 1    
    98   50   52 1    
    99   50  116 1    
   100   51  117 1    
   101   51  118 1    
   102   51  119 1    
   103   52   53 2    
   104   52   54 am   BACKBONE|DICT|INTERRES
   105   54   55 1    
   106   54  120 1    
   107   55   56 1    
   108   55   57 1    
   109   55  121 1    
   110   56  122 1    
   111   56  123 1    
   112   56  124 1    
   113   57   58 2    
   114   57   59 am   BACKBONE|DICT|INTERRES
   115   59   60 1    
   116   59  125 1    
   117   60   61 1    
   118   60   62 1    
   119   60  126 1    
   120   61  127 1    
   121   61  128 1    
   122   61  129 1    
   123   62   63 2    
   124   62   64 am   BACKBONE|DICT|INTERRES
   125   64   65 1    
   126   64  130 1    
   127   65   66 1    
   128   65   69 1    
   129   65  131 1    
   130   66   67 am   BACKBONE|DICT|INTERRES
   131   66   68 2    
   132   67  132 1    
   133   67  133 1    
   134   69   70 1    
   135   69  134 1    
   136   69  135 1    
   137   70   71 1    
   138   71  136 1    
   139   71  137 1    
@<TRIPOS>SUBSTRUCTURE
     1 UNK         1 GROUP             0       ****    0 ROOT    
