@<TRIPOS>MOLECULE
3R136
137   139    1
SMALL
USER_CHARGES


@<TRIPOS>ATOM
      1 CA         30.9749   24.2146    5.8374 C.3       0 UNK        -0.1979 
      2 C          29.6274   23.8566    5.2305 C.2       0 UNK         0.4864 
      3 O          28.7649   23.3218    5.9293 O.2       0 UNK        -0.5359 
      4 N          29.4462   24.1379    3.9341 N.am      1 UNK        -0.4318 
      5 CA         28.1971   23.9085    3.1986 C.3       1 UNK         0.0824 
      6 C6         28.4409   23.8393    1.6679 C.3       12 UNK        -0.0944 
      7 S7         29.3815   22.3329    1.2388 S.3       12 UNK        -0.2672 
      8 C8         30.1911   22.7855   -0.3370 C.3       12 UNK         0.0333 
      9 C9         31.2877   23.8514   -0.2565 C.ar      12 UNK        -0.0807 
     10 C10        31.8760   24.2382    0.9528 C.ar      12 UNK        -0.0894 
     11 C11        32.8723   25.2146    0.9827 C.ar      12 UNK        -0.0804 
     12 C12        33.3072   25.7920   -0.2130 C.ar      12 UNK        -0.0824 
     13 C13        32.7405   25.4217   -1.4363 C.ar      12 UNK        -0.0762 
     14 C14        31.7366   24.4413   -1.4440 C.ar      12 UNK        -0.0782 
     15 C15        33.2728   26.0772   -2.7154 C.3       12 UNK         0.0230 
     16 S16        32.1528   25.9799   -4.1561 S.3       12 UNK        -0.2608 
     17 C17        31.8916   27.7343   -4.6170 C.3       12 UNK        -0.0989 
     18 CA         30.7249   28.4552   -3.8801 C.3       5 UNK         0.0716 
     19 N          29.6222   27.5399   -3.5519 N.am      5 UNK        -0.4135 
     20 C          28.4459   27.8488   -2.9891 C.2       4 UNK         0.5031 
     21 O          28.0803   29.0027   -2.7483 O.2       4 UNK        -0.5229 
     22 CA         27.5327   26.6692   -2.6080 C.3       4 UNK         0.0329 
     23 CB         28.3349   25.4251   -2.1534 C.3       4 UNK        -0.2001 
     24 N          26.6200   27.1297   -1.5607 N.am      4 UNK        -0.4303 
     25 C          25.6159   26.4423   -1.0080 C.2       3 UNK         0.5044 
     26 O          25.3027   25.2913   -1.3205 O.2       3 UNK        -0.5152 
     27 CA         24.8219   27.1455    0.0961 C.3       3 UNK         0.0319 
     28 CB         23.3746   27.4289   -0.3505 C.3       3 UNK        -0.2001 
     29 N          24.8449   26.2708    1.2641 N.am      3 UNK        -0.4354 
     30 C          24.5618   26.6248    2.5229 C.2       2 UNK         0.4964 
     31 O          24.1909   27.7509    2.8545 O.2       2 UNK        -0.5047 
     32 CA         24.7270   25.5384    3.5994 C.3       2 UNK         0.0288 
     33 CB         23.4404   24.7059    3.7268 C.3       2 UNK        -0.2113 
     34 N          25.8620   24.6465    3.3374 N.am      2 UNK        -0.4145 
     35 C          27.1420   24.9726    3.5682 C.2       1 UNK         0.5006 
     36 O          27.4938   26.0504    4.0564 O.2       1 UNK        -0.5103 
     37 C          31.2304   29.2770   -2.6726 C.2       5 UNK         0.5055 
     38 O          31.6271   30.4302   -2.8486 O.2       5 UNK        -0.5220 
     39 N          31.1632   28.6922   -1.4750 N.am      6 UNK        -0.4450 
     40 CA         31.2238   29.3664   -0.1856 C.3       6 UNK         0.0367 
     41 CB         32.6619   29.3655    0.3605 C.3       6 UNK        -0.1929 
     42 C          30.2569   28.6077    0.7305 C.2       6 UNK         0.5070 
     43 O          29.8385   27.4972    0.3885 O.2       6 UNK        -0.5237 
     44 N          29.8991   29.2115    1.8650 N.am      7 UNK        -0.4739 
     45 CA         28.9859   28.6159    2.8313 C.3       7 UNK         0.0276 
     46 CB         27.5361   28.9363    2.4323 C.3       7 UNK        -0.1927 
     47 C          29.2869   29.1332    4.2363 C.2       7 UNK         0.5013 
     48 O          29.7298   30.2765    4.3783 O.2       7 UNK        -0.5193 
     49 N          28.9929   28.2900    5.2359 N.am      8 UNK        -0.4253 
     50 CA         29.0348   28.5496    6.6801 C.3       8 UNK         0.0242 
     51 CB         27.7104   29.2181    7.1106 C.3       8 UNK        -0.2000 
     52 C          30.2944   29.3161    7.1356 C.2       8 UNK         0.4948 
     53 O          31.3889   28.7513    7.1136 O.2       8 UNK        -0.5275 
     54 N          30.1264   30.5922    7.5085 N.am      9 UNK        -0.4246 
     55 CA         31.1833   31.4963    7.9673 C.3       9 UNK         0.0261 
     56 CB         30.5430   32.7980    8.4766 C.3       9 UNK        -0.1959 
     57 C          32.2692   31.8069    6.9199 C.2       9 UNK         0.5033 
     58 O          33.3786   32.1676    7.3158 O.2       9 UNK        -0.5390 
     59 N          31.9590   31.6643    5.6216 N.am      10 UNK        -0.4215 
     60 CA         32.9386   31.8068    4.5401 C.3       10 UNK         0.0240 
     61 CB         32.2251   32.1500    3.2230 C.3       10 UNK        -0.1982 
     62 C          33.8211   30.5555    4.3844 C.2       10 UNK         0.4970 
     63 O          34.9522   30.6831    3.9143 O.2       10 UNK        -0.4916 
     64 N          33.3104   29.3852    4.7912 N.am      11 UNK        -0.4279 
     65 CA         34.0903   28.1468    4.9156 C.3       11 UNK         0.1003 
     66 C          34.9004   28.1272    6.2376 C.2       11 UNK         0.5709 
     67 N          34.2832   28.4529    7.3674 N.am      11 UNK        -0.7358 
     68 O          36.0896   27.8191    6.2369 O.2       11 UNK        -0.4999 
     69 C69        33.2072   26.8793    4.8080 C.3       12 UNK        -0.0954 
     70 S70        32.3449   26.7433    3.2120 S.3       12 UNK        -0.2268 
     71 C71        33.4718   25.6337    2.3145 C.3       12 UNK         0.0203 
     72 H72        31.7396   24.3349    5.0710 H         1 UNK         0.0888 
     73 H73        30.8968   25.1439    6.4010 H         1 UNK         0.0888 
     74 H74        31.3051   23.4293    6.5168 H         1 UNK         0.0888 
     75 H75        30.1715   24.6177    3.4220 H         1 UNK         0.3017 
     76 H76        27.7936   22.9453    3.5201 H         1 UNK         0.0873 
     77 H77        27.5001   23.8054    1.1152 H         1 UNK         0.0745 
     78 H78        28.9699   24.7285    1.3174 H         1 UNK         0.0745 
     79 H79        30.6332   21.8808   -0.7560 H         1 UNK         0.0705 
     80 H80        29.4192   23.0983   -1.0392 H         1 UNK         0.0705 
     81 H81        31.5659   23.7872    1.8831 H         1 UNK         0.1334 
     82 H82        34.0945   26.5328   -0.1924 H         1 UNK         0.1417 
     83 H83        31.3005   24.1183   -2.3782 H         1 UNK         0.1562 
     84 H84        34.2139   25.5948   -2.9823 H         1 UNK         0.0748 
     85 H85        33.5132   27.1221   -2.5143 H         1 UNK         0.0748 
     86 H86        31.6675   27.7320   -5.6849 H         1 UNK         0.0940 
     87 H87        32.8325   28.2835   -4.5375 H         1 UNK         0.0940 
     88 H88        30.3076   29.1892   -4.5729 H         1 UNK         0.0703 
     89 H89        29.8340   26.5650   -3.7096 H         1 UNK         0.3081 
     90 H90        26.9407   26.4128   -3.4884 H         1 UNK         0.0719 
     91 H91        28.9740   25.0415   -2.9486 H         1 UNK         0.0809 
     92 H92        27.6838   24.5987   -1.8731 H         1 UNK         0.0809 
     93 H93        28.9670   25.6490   -1.2938 H         1 UNK         0.0809 
     94 H94        26.7900   28.0888   -1.2814 H         1 UNK         0.2990 
     95 H95        25.3050   28.0914    0.3463 H         1 UNK         0.0690 
     96 H96        22.8163   27.9643    0.4174 H         1 UNK         0.0788 
     97 H97        22.8351   26.5078   -0.5750 H         1 UNK         0.0788 
     98 H98        23.3585   28.0455   -1.2501 H         1 UNK         0.0788 
     99 H99        25.1354   25.3218    1.0702 H         1 UNK         0.2993 
    100 H100       24.8977   26.0452    4.5524 H         1 UNK         0.0949 
    101 H101       23.5156   23.9821    4.5387 H         1 UNK         0.0767 
    102 H102       22.5832   25.3451    3.9434 H         1 UNK         0.0767 
    103 H103       23.2163   24.1605    2.8091 H         1 UNK         0.0767 
    104 H104       25.6468   23.7347    2.9599 H         1 UNK         0.3013 
    105 H105       30.7818   27.7549   -1.4021 H         1 UNK         0.3121 
    106 H106       30.8674   30.3934   -0.2919 H         1 UNK         0.0774 
    107 H107       32.7397   29.9755    1.2594 H         1 UNK         0.0815 
    108 H108       32.9884   28.3646    0.6323 H         1 UNK         0.0815 
    109 H109       33.3673   29.7673   -0.3666 H         1 UNK         0.0815 
    110 H110       30.2869   30.1062    2.1314 H         1 UNK         0.2987 
    111 H111       29.1371   27.5345    2.8342 H         1 UNK         0.0949 
    112 H112       27.3698   30.0100    2.3405 H         1 UNK         0.0806 
    113 H113       27.2854   28.4712    1.4806 H         1 UNK         0.0806 
    114 H114       26.8320   28.5595    3.1746 H         1 UNK         0.0806 
    115 H115       28.6005   27.3902    4.9684 H         1 UNK         0.3010 
    116 H116       29.0864   27.5745    7.1670 H         1 UNK         0.0829 
    117 H117       26.8614   28.5704    6.8903 H         1 UNK         0.0813 
    118 H118       27.6902   29.4100    8.1844 H         1 UNK         0.0813 
    119 H119       27.5385   30.1633    6.5939 H         1 UNK         0.0813 
    120 H120       29.1944   30.9772    7.4599 H         1 UNK         0.3038 
    121 H121       31.6826   31.0105    8.8084 H         1 UNK         0.0769 
    122 H122       30.0027   33.3186    7.6849 H         1 UNK         0.0811 
    123 H123       31.3014   33.4834    8.8580 H         1 UNK         0.0811 
    124 H124       29.8451   32.6063    9.2919 H         1 UNK         0.0811 
    125 H125       31.0337   31.3308    5.3588 H         1 UNK         0.3204 
    126 H126       33.6000   32.6426    4.7794 H         1 UNK         0.0748 
    127 H127       31.6201   33.0513    3.3229 H         1 UNK         0.0771 
    128 H128       32.9475   32.3312    2.4259 H         1 UNK         0.0771 
    129 H129       31.5732   31.3440    2.8933 H         1 UNK         0.0771 
    130 H130       32.3930   29.3675    5.2153 H         1 UNK         0.2980 
    131 H131       34.8105   28.1078    4.0957 H         1 UNK         0.0545 
    132 H132       33.2856   28.6461    7.3632 H         1 UNK         0.3459 
    133 H133       34.7959   28.4498    8.2341 H         1 UNK         0.3459 
    134 H134       33.8053   25.9799    4.9652 H         1 UNK         0.0616 
    135 H135       32.4508   26.8760    5.5931 H         1 UNK         0.0616 
    136 H136       33.6707   24.7457    2.9164 H         1 UNK         0.0634 
    137 H137       34.4298   26.1350    2.1688 H         1 UNK         0.0634 
@<TRIPOS>BOND
     1    1    2 1    
     2    1   72 1    
     3    1   73 1    
     4    1   74 1    
     5    2    3 2    
     6    2    4 am   BACKBONE|DICT|INTERRES
     7    4    5 1    
     8    4   75 1    
     9    5    6 1    
    10    5   35 1    
    11    5   76 1    
    12    6    7 1    
    13    6   77 1    
    14    6   78 1    
    15    7    8 1    
    16    8    9 1    
    17    8   79 1    
    18    8   80 1    
    19    9   10 ar   
    20    9   14 ar   
    21   10   11 ar   
    22   10   81 1    
    23   11   12 ar   
    24   11   71 1    
    25   12   13 ar   
    26   12   82 1    
    27   13   14 ar   
    28   13   15 1    
    29   14   83 1    
    30   15   16 1    
    31   15   84 1    
    32   15   85 1    
    33   16   17 1    
    34   17   18 1    
    35   17   86 1    
    36   17   87 1    
    37   18   19 1    
    38   18   37 1    
    39   18   88 1    
    40   19   20 am   BACKBONE|DICT|INTERRES
    41   19   89 1    
    42   20   21 2    
    43   20   22 1    
    44   22   23 1    
    45   22   24 1    
    46   22   90 1    
    47   23   91 1    
    48   23   92 1    
    49   23   93 1    
    50   24   25 am   BACKBONE|DICT|INTERRES
    51   24   94 1    
    52   25   26 2    
    53   25   27 1    
    54   27   28 1    
    55   27   29 1    
    56   27   95 1    
    57   28   96 1    
    58   28   97 1    
    59   28   98 1    
    60   29   30 am   BACKBONE|DICT|INTERRES
    61   29   99 1    
    62   30   31 2    
    63   30   32 1    
    64   32   33 1    
    65   32   34 1    
    66   32  100 1    
    67   33  101 1    
    68   33  102 1    
    69   33  103 1    
    70   34   35 am   BACKBONE|DICT|INTERRES
    71   34  104 1    
    72   35   36 2    
    73   37   38 2    
    74   37   39 am   BACKBONE|DICT|INTERRES
    75   39   40 1    
    76   39  105 1    
    77   40   41 1    
    78   40   42 1    
    79   40  106 1    
    80   41  107 1    
    81   41  108 1    
    82   41  109 1    
    83   42   43 2    
    84   42   44 am   BACKBONE|DICT|INTERRES
    85   44   45 1    
    86   44  110 1    
    87   45   46 1    
    88   45   47 1    
    89   45  111 1    
    90   46  112 1    
    91   46  113 1    
    92   46  114 1    
    93   47   48 2    
    94   47   49 am   BACKBONE|DICT|INTERRES
    95   49   50 1    
    96   49  115 1    
    97   50   51 1    
    98   50   52 1    
    99   50  116 1    
   100   51  117 1    
   101   51  118 1    
   102   51  119 1    
   103   52   53 2    
   104   52   54 am   BACKBONE|DICT|INTERRES
   105   54   55 1    
   106   54  120 1    
   107   55   56 1    
   108   55   57 1    
   109   55  121 1    
   110   56  122 1    
   111   56  123 1    
   112   56  124 1    
   113   57   58 2    
   114   57   59 am   BACKBONE|DICT|INTERRES
   115   59   60 1    
   116   59  125 1    
   117   60   61 1    
   118   60   62 1    
   119   60  126 1    
   120   61  127 1    
   121   61  128 1    
   122   61  129 1    
   123   62   63 2    
   124   62   64 am   BACKBONE|DICT|INTERRES
   125   64   65 1    
   126   64  130 1    
   127   65   66 1    
   128   65   69 1    
   129   65  131 1    
   130   66   67 am   BACKBONE|DICT|INTERRES
   131   66   68 2    
   132   67  132 1    
   133   67  133 1    
   134   69   70 1    
   135   69  134 1    
   136   69  135 1    
   137   70   71 1    
   138   71  136 1    
   139   71  137 1    
@<TRIPOS>SUBSTRUCTURE
     1 UNK         1 GROUP             0       ****    0 ROOT    
