@<TRIPOS>MOLECULE
3R136
137   139    1
SMALL
USER_CHARGES


@<TRIPOS>ATOM
      1 CA         28.4663   22.3212   -3.7253 C.3       0 UNK        -0.1979 
      2 C          28.5619   22.9536   -2.3459 C.2       0 UNK         0.4864 
      3 O          28.1473   24.1005   -2.1702 O.2       0 UNK        -0.5359 
      4 N          29.0891   22.2125   -1.3598 N.am      1 UNK        -0.4318 
      5 CA         29.3096   22.6650    0.0217 C.3       1 UNK         0.0824 
      6 C6         30.0282   21.5968    0.8788 C.3       12 UNK        -0.0944 
      7 S7         31.7939   21.4974    0.4284 S.3       12 UNK        -0.2672 
      8 C8         32.6296   21.9810    1.9771 C.3       12 UNK         0.0333 
      9 C9         32.3016   23.4019    2.4250 C.ar      12 UNK        -0.0807 
     10 C10        32.9252   24.5010    1.8250 C.ar      12 UNK        -0.0894 
     11 C11        32.6550   25.7994    2.2723 C.ar      12 UNK        -0.0804 
     12 C12        31.7457   25.9981    3.3156 C.ar      12 UNK        -0.0824 
     13 C13        31.1166   24.9088    3.9225 C.ar      12 UNK        -0.0762 
     14 C14        31.4052   23.6151    3.4772 C.ar      12 UNK        -0.0782 
     15 C15        30.1467   25.1122    5.0775 C.3       12 UNK         0.0230 
     16 S16        28.4498   24.6614    4.5971 S.3       12 UNK        -0.2608 
     17 C17        27.5713   26.2538    4.4622 C.3       12 UNK        -0.0989 
     18 CA         28.2239   27.3545    3.5846 C.3       5 UNK         0.0716 
     19 N          28.4520   26.9482    2.1897 N.am      5 UNK        -0.4135 
     20 C          29.0785   27.7145    1.2804 C.2       4 UNK         0.5031 
     21 O          29.5600   28.8162    1.5347 O.2       4 UNK        -0.5229 
     22 CA         29.1234   27.2278   -0.1773 C.3       4 UNK         0.0329 
     23 CB         30.3467   26.3328   -0.4113 C.3       4 UNK        -0.2001 
     24 N          27.8976   26.5565   -0.6181 N.am      4 UNK        -0.4303 
     25 C          26.6802   27.1213   -0.6240 C.2       3 UNK         0.5044 
     26 O          26.4560   28.2616   -0.2172 O.2       3 UNK        -0.5152 
     27 CA         25.5153   26.2678   -1.1466 C.3       3 UNK         0.0319 
     28 CB         25.4590   26.3026   -2.6822 C.3       3 UNK        -0.2001 
     29 N          25.6313   24.8843   -0.6864 N.am      3 UNK        -0.4354 
     30 C          25.1848   24.4490    0.5011 C.2       2 UNK         0.4964 
     31 O          24.5203   25.1366    1.2770 O.2       2 UNK        -0.5047 
     32 CA         25.5626   23.0116    0.9111 C.3       2 UNK         0.0288 
     33 CB         24.4900   22.0164    0.4398 C.3       2 UNK        -0.2113 
     34 N          26.8762   22.5780    0.4220 N.am      2 UNK        -0.4145 
     35 C          28.0357   23.1861    0.7159 C.2       1 UNK         0.5006 
     36 O          28.1182   24.1709    1.4474 O.2       1 UNK        -0.5103 
     37 C          27.3861   28.6466    3.7111 C.2       5 UNK         0.5055 
     38 O          27.6118   29.4134    4.6473 O.2       5 UNK        -0.5220 
     39 N          26.4349   28.8666    2.7908 N.am      6 UNK        -0.4450 
     40 CA         25.6171   30.0803    2.7468 C.3       6 UNK         0.0367 
     41 CB         24.3131   29.8043    1.9806 C.3       6 UNK        -0.1929 
     42 C          26.3796   31.2617    2.1256 C.2       6 UNK         0.5070 
     43 O          26.1665   32.4002    2.5430 O.2       6 UNK        -0.5237 
     44 N          27.2507   30.9763    1.1474 N.am      7 UNK        -0.4739 
     45 CA         28.1079   31.9617    0.4870 C.3       7 UNK         0.0276 
     46 CB         28.6734   31.3678   -0.8135 C.3       7 UNK        -0.1927 
     47 C          29.2384   32.4654    1.4006 C.2       7 UNK         0.5013 
     48 O          29.4404   33.6772    1.4937 O.2       7 UNK        -0.5193 
     49 N          29.9458   31.5387    2.0587 N.am      8 UNK        -0.4253 
     50 CA         31.0572   31.8160    2.9627 C.3       8 UNK         0.0242 
     51 CB         32.3321   32.1504    2.1610 C.3       8 UNK        -0.2000 
     52 C          31.2658   30.6028    3.8742 C.2       8 UNK         0.4948 
     53 O          31.9297   29.6475    3.4742 O.2       8 UNK        -0.5275 
     54 N          30.7153   30.6614    5.0943 N.am      9 UNK        -0.4246 
     55 CA         30.8318   29.6074    6.1116 C.3       9 UNK         0.0261 
     56 CB         29.9333   29.9543    7.3098 C.3       9 UNK        -0.1959 
     57 C          32.2739   29.3393    6.5849 C.2       9 UNK         0.5033 
     58 O          32.5637   28.2260    7.0242 O.2       9 UNK        -0.5390 
     59 N          33.1421   30.3528    6.4792 N.am      10 UNK        -0.4215 
     60 CA         34.5689   30.2927    6.7883 C.3       10 UNK         0.0240 
     61 CB         34.8689   31.2313    7.9734 C.3       10 UNK        -0.1982 
     62 C          35.3792   30.6362    5.5273 C.2       10 UNK         0.4970 
     63 O          36.2015   31.5540    5.5526 O.2       10 UNK        -0.4916 
     64 N          35.1102   29.9079    4.4365 N.am      11 UNK        -0.4279 
     65 CA         35.8435   29.9770    3.1628 C.3       11 UNK         0.1003 
     66 C          37.3587   29.6389    3.2847 C.2       11 UNK         0.5709 
     67 N          38.1798   30.1505    2.3769 N.am      11 UNK        -0.7358 
     68 O          37.7928   28.9005    4.1680 O.2       11 UNK        -0.4999 
     69 C69        35.1520   29.1277    2.0606 C.3       12 UNK        -0.0954 
     70 S70        34.8870   27.3821    2.5323 S.3       12 UNK        -0.2268 
     71 C71        33.3481   26.9964    1.6445 C.3       12 UNK         0.0203 
     72 H72        27.4272   22.2903   -4.0516 H         1 UNK         0.0888 
     73 H73        29.0325   22.9107   -4.4456 H         1 UNK         0.0888 
     74 H74        28.8572   21.3040   -3.7361 H         1 UNK         0.0888 
     75 H75        29.4226   21.2820   -1.5682 H         1 UNK         0.3017 
     76 H76        29.9740   23.5237   -0.0504 H         1 UNK         0.0873 
     77 H77        29.9442   21.8177    1.9436 H         1 UNK         0.0745 
     78 H78        29.5686   20.6160    0.7448 H         1 UNK         0.0745 
     79 H79        33.7072   21.8914    1.8330 H         1 UNK         0.0705 
     80 H80        32.3715   21.2636    2.7578 H         1 UNK         0.0705 
     81 H81        33.6308   24.3444    1.0205 H         1 UNK         0.1334 
     82 H82        31.5421   27.0036    3.6590 H         1 UNK         0.1417 
     83 H83        30.9261   22.7724    3.9567 H         1 UNK         0.1562 
     84 H84        30.1853   26.1318    5.4617 H         1 UNK         0.0748 
     85 H85        30.4516   24.4720    5.9066 H         1 UNK         0.0748 
     86 H86        27.4345   26.6203    5.4822 H         1 UNK         0.0940 
     87 H87        26.5683   26.0314    4.0914 H         1 UNK         0.0940 
     88 H88        29.2040   27.5918    3.9969 H         1 UNK         0.0703 
     89 H89        28.1592   26.0085    1.9276 H         1 UNK         0.3081 
     90 H90        29.2327   28.1062   -0.8158 H         1 UNK         0.0719 
     91 H91        31.2576   26.9311   -0.4103 H         1 UNK         0.0809 
     92 H92        30.3009   25.8143   -1.3691 H         1 UNK         0.0809 
     93 H93        30.4538   25.5930    0.3804 H         1 UNK         0.0809 
     94 H94        27.9996   25.6253   -1.0129 H         1 UNK         0.2990 
     95 H95        24.5863   26.7002   -0.7684 H         1 UNK         0.0690 
     96 H96        24.6089   25.7341   -3.0594 H         1 UNK         0.0788 
     97 H97        26.3630   25.8924   -3.1338 H         1 UNK         0.0788 
     98 H98        25.3505   27.3263   -3.0433 H         1 UNK         0.0788 
     99 H99        26.2213   24.2755   -1.2408 H         1 UNK         0.2993 
    100 H100       25.5983   22.9885    2.0027 H         1 UNK         0.0949 
    101 H101       23.5040   22.3020    0.8094 H         1 UNK         0.0767 
    102 H102       24.4301   21.9722   -0.6485 H         1 UNK         0.0767 
    103 H103       24.6925   21.0103    0.8076 H         1 UNK         0.0767 
    104 H104       26.8943   21.7865   -0.2045 H         1 UNK         0.3013 
    105 H105       26.3370   28.2238    2.0148 H         1 UNK         0.3121 
    106 H106       25.3492   30.3585    3.7687 H         1 UNK         0.0774 
    107 H107       23.6621   30.6793    1.9988 H         1 UNK         0.0815 
    108 H108       24.4967   29.5611    0.9341 H         1 UNK         0.0815 
    109 H109       23.7579   28.9782    2.4251 H         1 UNK         0.0815 
    110 H110       27.3393   30.0129    0.8470 H         1 UNK         0.2987 
    111 H111       27.4885   32.8214    0.2215 H         1 UNK         0.0949 
    112 H112       27.8763   31.0298   -1.4761 H         1 UNK         0.0806 
    113 H113       29.2558   32.1120   -1.3581 H         1 UNK         0.0806 
    114 H114       29.3309   30.5202   -0.6206 H         1 UNK         0.0806 
    115 H115       29.7325   30.5492    1.9152 H         1 UNK         0.3010 
    116 H116       30.8057   32.6766    3.5863 H         1 UNK         0.0829 
    117 H117       32.2257   33.0876    1.6151 H         1 UNK         0.0813 
    118 H118       33.1946   32.2553    2.8207 H         1 UNK         0.0813 
    119 H119       32.5660   31.3686    1.4376 H         1 UNK         0.0813 
    120 H120       30.1525   31.4640    5.3386 H         1 UNK         0.3038 
    121 H121       30.4634   28.6815    5.6676 H         1 UNK         0.0769 
    122 H122       30.2369   30.8869    7.7869 H         1 UNK         0.0811 
    123 H123       29.9751   29.1712    8.0683 H         1 UNK         0.0811 
    124 H124       28.8902   30.0535    7.0089 H         1 UNK         0.0811 
    125 H125       32.8096   31.2190    6.0799 H         1 UNK         0.3204 
    126 H126       34.8581   29.2803    7.0783 H         1 UNK         0.0748 
    127 H127       35.9250   31.1951    8.2440 H         1 UNK         0.0771 
    128 H128       34.6246   32.2685    7.7407 H         1 UNK         0.0771 
    129 H129       34.2995   30.9440    8.8575 H         1 UNK         0.0771 
    130 H130       34.4013   29.1897    4.4870 H         1 UNK         0.2980 
    131 H131       35.7874   31.0202    2.8455 H         1 UNK         0.0545 
    132 H132       37.8382   30.7491    1.6412 H         1 UNK         0.3459 
    133 H133       39.1630   29.9349    2.4305 H         1 UNK         0.3459 
    134 H134       34.1865   29.5782    1.8298 H         1 UNK         0.0616 
    135 H135       35.7179   29.1565    1.1279 H         1 UNK         0.0616 
    136 H136       32.6743   27.8541    1.6600 H         1 UNK         0.0634 
    137 H137       33.5776   26.8017    0.5960 H         1 UNK         0.0634 
@<TRIPOS>BOND
     1    1    2 1    
     2    1   72 1    
     3    1   73 1    
     4    1   74 1    
     5    2    3 2    
     6    2    4 am   BACKBONE|DICT|INTERRES
     7    4    5 1    
     8    4   75 1    
     9    5    6 1    
    10    5   35 1    
    11    5   76 1    
    12    6    7 1    
    13    6   77 1    
    14    6   78 1    
    15    7    8 1    
    16    8    9 1    
    17    8   79 1    
    18    8   80 1    
    19    9   10 ar   
    20    9   14 ar   
    21   10   11 ar   
    22   10   81 1    
    23   11   12 ar   
    24   11   71 1    
    25   12   13 ar   
    26   12   82 1    
    27   13   14 ar   
    28   13   15 1    
    29   14   83 1    
    30   15   16 1    
    31   15   84 1    
    32   15   85 1    
    33   16   17 1    
    34   17   18 1    
    35   17   86 1    
    36   17   87 1    
    37   18   19 1    
    38   18   37 1    
    39   18   88 1    
    40   19   20 am   BACKBONE|DICT|INTERRES
    41   19   89 1    
    42   20   21 2    
    43   20   22 1    
    44   22   23 1    
    45   22   24 1    
    46   22   90 1    
    47   23   91 1    
    48   23   92 1    
    49   23   93 1    
    50   24   25 am   BACKBONE|DICT|INTERRES
    51   24   94 1    
    52   25   26 2    
    53   25   27 1    
    54   27   28 1    
    55   27   29 1    
    56   27   95 1    
    57   28   96 1    
    58   28   97 1    
    59   28   98 1    
    60   29   30 am   BACKBONE|DICT|INTERRES
    61   29   99 1    
    62   30   31 2    
    63   30   32 1    
    64   32   33 1    
    65   32   34 1    
    66   32  100 1    
    67   33  101 1    
    68   33  102 1    
    69   33  103 1    
    70   34   35 am   BACKBONE|DICT|INTERRES
    71   34  104 1    
    72   35   36 2    
    73   37   38 2    
    74   37   39 am   BACKBONE|DICT|INTERRES
    75   39   40 1    
    76   39  105 1    
    77   40   41 1    
    78   40   42 1    
    79   40  106 1    
    80   41  107 1    
    81   41  108 1    
    82   41  109 1    
    83   42   43 2    
    84   42   44 am   BACKBONE|DICT|INTERRES
    85   44   45 1    
    86   44  110 1    
    87   45   46 1    
    88   45   47 1    
    89   45  111 1    
    90   46  112 1    
    91   46  113 1    
    92   46  114 1    
    93   47   48 2    
    94   47   49 am   BACKBONE|DICT|INTERRES
    95   49   50 1    
    96   49  115 1    
    97   50   51 1    
    98   50   52 1    
    99   50  116 1    
   100   51  117 1    
   101   51  118 1    
   102   51  119 1    
   103   52   53 2    
   104   52   54 am   BACKBONE|DICT|INTERRES
   105   54   55 1    
   106   54  120 1    
   107   55   56 1    
   108   55   57 1    
   109   55  121 1    
   110   56  122 1    
   111   56  123 1    
   112   56  124 1    
   113   57   58 2    
   114   57   59 am   BACKBONE|DICT|INTERRES
   115   59   60 1    
   116   59  125 1    
   117   60   61 1    
   118   60   62 1    
   119   60  126 1    
   120   61  127 1    
   121   61  128 1    
   122   61  129 1    
   123   62   63 2    
   124   62   64 am   BACKBONE|DICT|INTERRES
   125   64   65 1    
   126   64  130 1    
   127   65   66 1    
   128   65   69 1    
   129   65  131 1    
   130   66   67 am   BACKBONE|DICT|INTERRES
   131   66   68 2    
   132   67  132 1    
   133   67  133 1    
   134   69   70 1    
   135   69  134 1    
   136   69  135 1    
   137   70   71 1    
   138   71  136 1    
   139   71  137 1    
@<TRIPOS>SUBSTRUCTURE
     1 UNK         1 GROUP             0       ****    0 ROOT    
