@<TRIPOS>MOLECULE
3R136
137   139    1
SMALL
USER_CHARGES


@<TRIPOS>ATOM
      1 CA         25.6150   21.8367    2.6304 C.3       0 UNK        -0.1979 
      2 C          26.2853   23.0659    2.0376 C.2       0 UNK         0.4864 
      3 O          26.1070   23.3410    0.8494 O.2       0 UNK        -0.5359 
      4 N          27.0405   23.8127    2.8594 N.am      1 UNK        -0.4318 
      5 CA         27.8137   25.0074    2.4892 C.3       1 UNK         0.0824 
      6 C6         28.5028   25.6615    3.7183 C.3       12 UNK        -0.0944 
      7 S7         29.7767   24.6321    4.5353 S.3       12 UNK        -0.2672 
      8 C8         30.9619   24.1695    3.2197 C.3       12 UNK         0.0333 
      9 C9         31.9399   25.2762    2.8312 C.ar      12 UNK        -0.0807 
     10 C10        33.3133   25.0991    3.0324 C.ar      12 UNK        -0.0894 
     11 C11        34.2292   26.0634    2.5993 C.ar      12 UNK        -0.0804 
     12 C12        33.7631   27.2281    1.9793 C.ar      12 UNK        -0.0824 
     13 C13        32.3948   27.4196    1.7706 C.ar      12 UNK        -0.0762 
     14 C14        31.4940   26.4394    2.1970 C.ar      12 UNK        -0.0782 
     15 C15        31.8842   28.6807    1.0824 C.3       12 UNK         0.0230 
     16 S16        32.0001   28.5889   -0.7378 S.3       12 UNK        -0.2608 
     17 C17        30.8176   27.2522   -1.1415 C.3       12 UNK        -0.0989 
     18 CA         29.5566   27.6265   -1.9742 C.3       5 UNK         0.0716 
     19 N          28.5928   26.5263   -1.9454 N.am      5 UNK        -0.4135 
     20 C          28.6862   25.4440   -2.7274 C.2       4 UNK         0.5031 
     21 O          29.4657   25.3548   -3.6777 O.2       4 UNK        -0.5229 
     22 CA         27.8217   24.2222   -2.3729 C.3       4 UNK         0.0329 
     23 CB         28.6031   23.2803   -1.4418 C.3       4 UNK        -0.2001 
     24 N          26.5351   24.5376   -1.7535 N.am      4 UNK        -0.4303 
     25 C          25.4829   25.0511   -2.4050 C.2       3 UNK         0.5044 
     26 O          25.5089   25.4034   -3.5847 O.2       3 UNK        -0.5152 
     27 CA         24.1731   25.1688   -1.6115 C.3       3 UNK         0.0319 
     28 CB         23.4527   23.8116   -1.5523 C.3       3 UNK        -0.2001 
     29 N          24.4178   25.6479   -0.2521 N.am      3 UNK        -0.4354 
     30 C          24.4436   26.9422    0.0924 C.2       2 UNK         0.4964 
     31 O          24.1818   27.8640   -0.6809 O.2       2 UNK        -0.5047 
     32 CA         24.8352   27.2781    1.5422 C.3       2 UNK         0.0288 
     33 CB         23.5841   27.4074    2.4257 C.3       2 UNK        -0.2113 
     34 N          25.7676   26.3290    2.1584 N.am      2 UNK        -0.4145 
     35 C          26.9997   26.0524    1.7045 C.2       1 UNK         0.5006 
     36 O          27.4859   26.5387    0.6820 O.2       1 UNK        -0.5103 
     37 C          28.8532   28.9339   -1.5693 C.2       5 UNK         0.5055 
     38 O          28.5791   29.7686   -2.4338 O.2       5 UNK        -0.5220 
     39 N          28.5735   29.0895   -0.2730 N.am      6 UNK        -0.4450 
     40 CA         28.0009   30.2678    0.3699 C.3       6 UNK         0.0367 
     41 CB         29.0089   31.4339    0.3754 C.3       6 UNK        -0.1929 
     42 C          27.6459   29.8659    1.8028 C.2       6 UNK         0.5070 
     43 O          28.2468   28.9306    2.3345 O.2       6 UNK        -0.5237 
     44 N          26.6922   30.5722    2.4207 N.am      7 UNK        -0.4739 
     45 CA         26.1261   30.2668    3.7443 C.3       7 UNK         0.0276 
     46 CB         24.7566   30.9605    3.8682 C.3       7 UNK        -0.1927 
     47 C          27.0570   30.5674    4.9431 C.2       7 UNK         0.5013 
     48 O          26.5843   31.0042    5.9941 O.2       7 UNK        -0.5193 
     49 N          28.3554   30.3093    4.7763 N.am      8 UNK        -0.4253 
     50 CA         29.4108   30.3888    5.7751 C.3       8 UNK         0.0242 
     51 CB         29.7944   31.8541    6.0543 C.3       8 UNK        -0.2000 
     52 C          30.6049   29.6095    5.2200 C.2       8 UNK         0.4948 
     53 O          30.9375   29.7730    4.0432 O.2       8 UNK        -0.5275 
     54 N          31.2474   28.7983    6.0678 N.am      9 UNK        -0.4246 
     55 CA         32.4585   28.0532    5.7262 C.3       9 UNK         0.0261 
     56 CB         32.6442   26.8885    6.7145 C.3       9 UNK        -0.1959 
     57 C          33.6673   29.0017    5.7050 C.2       9 UNK         0.5033 
     58 O          34.3614   29.1349    6.7143 O.2       9 UNK        -0.5390 
     59 N          33.8727   29.6696    4.5616 N.am      10 UNK        -0.4215 
     60 CA         34.9097   30.6831    4.3169 C.3       10 UNK         0.0240 
     61 CB         34.7624   31.2081    2.8794 C.3       10 UNK        -0.1982 
     62 C          36.3565   30.2156    4.5748 C.2       10 UNK         0.4970 
     63 O          37.2198   31.0467    4.8581 O.2       10 UNK        -0.4916 
     64 N          36.5835   28.9013    4.4922 N.am      11 UNK        -0.4279 
     65 CA         37.8031   28.2013    4.9167 C.3       11 UNK         0.1003 
     66 C          38.0654   28.1997    6.4532 C.2       11 UNK         0.5709 
     67 N          37.1068   28.5427    7.3057 N.am      11 UNK        -0.7358 
     68 O          39.1760   27.8919    6.8800 O.2       11 UNK        -0.4999 
     69 C69        37.8592   26.7655    4.3236 C.3       12 UNK        -0.0954 
     70 S70        36.2763   25.8547    4.4727 S.3       12 UNK        -0.2268 
     71 C71        35.7242   25.8155    2.7368 C.3       12 UNK         0.0203 
     72 H72        25.9459   20.9418    2.1042 H         1 UNK         0.0888 
     73 H73        24.5332   21.9134    2.5254 H         1 UNK         0.0888 
     74 H74        25.8469   21.7146    3.6882 H         1 UNK         0.0888 
     75 H75        27.1467   23.5204    3.8208 H         1 UNK         0.3017 
     76 H76        28.5760   24.6744    1.7880 H         1 UNK         0.0873 
     77 H77        28.9452   26.6275    3.4783 H         1 UNK         0.0745 
     78 H78        27.7497   25.8940    4.4734 H         1 UNK         0.0745 
     79 H79        31.5204   23.3094    3.5922 H         1 UNK         0.0705 
     80 H80        30.4502   23.8016    2.3326 H         1 UNK         0.0705 
     81 H81        33.6790   24.1941    3.4983 H         1 UNK         0.1334 
     82 H82        34.4642   27.9734    1.6295 H         1 UNK         0.1417 
     83 H83        30.4431   26.5802    2.0060 H         1 UNK         0.1562 
     84 H84        32.4596   29.5410    1.4264 H         1 UNK         0.0748 
     85 H85        30.8529   28.8796    1.3750 H         1 UNK         0.0748 
     86 H86        30.4944   26.7739   -0.2208 H         1 UNK         0.0940 
     87 H87        31.3775   26.4808   -1.6726 H         1 UNK         0.0940 
     88 H88        29.8835   27.7823   -3.0048 H         1 UNK         0.0703 
     89 H89        27.9420   26.5223   -1.1629 H         1 UNK         0.3081 
     90 H90        27.6214   23.6853   -3.3027 H         1 UNK         0.0719 
     91 H91        28.8241   23.7535   -0.4847 H         1 UNK         0.0809 
     92 H92        28.0434   22.3666   -1.2408 H         1 UNK         0.0809 
     93 H93        29.5539   22.9864   -1.8887 H         1 UNK         0.0809 
     94 H94        26.4097   24.2349   -0.7902 H         1 UNK         0.2990 
     95 H95        23.5215   25.8696   -2.1382 H         1 UNK         0.0690 
     96 H96        22.4950   23.8949   -1.0383 H         1 UNK         0.0788 
     97 H97        24.0462   23.0575   -1.0334 H         1 UNK         0.0788 
     98 H98        23.2503   23.4340   -2.5555 H         1 UNK         0.0788 
     99 H99        24.7008   24.9536    0.4289 H         1 UNK         0.2993 
    100 H100       25.3284   28.2488    1.5109 H         1 UNK         0.0949 
    101 H101       22.8856   28.1344    2.0086 H         1 UNK         0.0767 
    102 H102       23.0532   26.4586    2.5144 H         1 UNK         0.0767 
    103 H103       23.8380   27.7465    3.4301 H         1 UNK         0.0767 
    104 H104       25.4472   25.8513    2.9880 H         1 UNK         0.3013 
    105 H105       28.7188   28.3190    0.3730 H         1 UNK         0.3121 
    106 H106       27.0905   30.5545   -0.1602 H         1 UNK         0.0774 
    107 H107       29.9293   31.1669    0.8964 H         1 UNK         0.0815 
    108 H108       28.5936   32.3087    0.8768 H         1 UNK         0.0815 
    109 H109       29.2755   31.7412   -0.6357 H         1 UNK         0.0815 
    110 H110       26.2871   31.3612    1.9369 H         1 UNK         0.2987 
    111 H111       25.9468   29.1902    3.7826 H         1 UNK         0.0949 
    112 H112       24.8548   32.0466    3.8624 H         1 UNK         0.0806 
    113 H113       24.0917   30.6768    3.0521 H         1 UNK         0.0806 
    114 H114       24.2555   30.6823    4.7965 H         1 UNK         0.0806 
    115 H115       28.6458   29.8993    3.8890 H         1 UNK         0.3010 
    116 H116       29.0616   29.9166    6.6957 H         1 UNK         0.0829 
    117 H117       28.9569   32.4158    6.4681 H         1 UNK         0.0813 
    118 H118       30.6109   31.9130    6.7751 H         1 UNK         0.0813 
    119 H119       30.1221   32.3620    5.1462 H         1 UNK         0.0813 
    120 H120       30.9392   28.7430    7.0279 H         1 UNK         0.3038 
    121 H121       32.3423   27.6206    4.7308 H         1 UNK         0.0769 
    122 H122       32.7288   27.2352    7.7451 H         1 UNK         0.0811 
    123 H123       33.5502   26.3268    6.4823 H         1 UNK         0.0811 
    124 H124       31.8094   26.1893    6.6603 H         1 UNK         0.0811 
    125 H125       33.1682   29.5583    3.8421 H         1 UNK         0.3204 
    126 H126       34.7158   31.5089    5.0043 H         1 UNK         0.0748 
    127 H127       35.4880   31.9968    2.6750 H         1 UNK         0.0771 
    128 H128       34.9226   30.4200    2.1428 H         1 UNK         0.0771 
    129 H129       33.7718   31.6312    2.7099 H         1 UNK         0.0771 
    130 H130       35.8057   28.2974    4.2727 H         1 UNK         0.2980 
    131 H131       38.6420   28.7539    4.4897 H         1 UNK         0.0545 
    132 H132       37.3070   28.5389    8.2925 H         1 UNK         0.3459 
    133 H133       36.1715   28.7826    6.9855 H         1 UNK         0.3459 
    134 H134       38.1519   26.8235    3.2750 H         1 UNK         0.0616 
    135 H135       38.6440   26.1710    4.7953 H         1 UNK         0.0616 
    136 H136       36.2703   26.5513    2.1456 H         1 UNK         0.0634 
    137 H137       35.9723   24.8424    2.3108 H         1 UNK         0.0634 
@<TRIPOS>BOND
     1    1    2 1    
     2    1   72 1    
     3    1   73 1    
     4    1   74 1    
     5    2    3 2    
     6    2    4 am   BACKBONE|DICT|INTERRES
     7    4    5 1    
     8    4   75 1    
     9    5    6 1    
    10    5   35 1    
    11    5   76 1    
    12    6    7 1    
    13    6   77 1    
    14    6   78 1    
    15    7    8 1    
    16    8    9 1    
    17    8   79 1    
    18    8   80 1    
    19    9   10 ar   
    20    9   14 ar   
    21   10   11 ar   
    22   10   81 1    
    23   11   12 ar   
    24   11   71 1    
    25   12   13 ar   
    26   12   82 1    
    27   13   14 ar   
    28   13   15 1    
    29   14   83 1    
    30   15   16 1    
    31   15   84 1    
    32   15   85 1    
    33   16   17 1    
    34   17   18 1    
    35   17   86 1    
    36   17   87 1    
    37   18   19 1    
    38   18   37 1    
    39   18   88 1    
    40   19   20 am   BACKBONE|DICT|INTERRES
    41   19   89 1    
    42   20   21 2    
    43   20   22 1    
    44   22   23 1    
    45   22   24 1    
    46   22   90 1    
    47   23   91 1    
    48   23   92 1    
    49   23   93 1    
    50   24   25 am   BACKBONE|DICT|INTERRES
    51   24   94 1    
    52   25   26 2    
    53   25   27 1    
    54   27   28 1    
    55   27   29 1    
    56   27   95 1    
    57   28   96 1    
    58   28   97 1    
    59   28   98 1    
    60   29   30 am   BACKBONE|DICT|INTERRES
    61   29   99 1    
    62   30   31 2    
    63   30   32 1    
    64   32   33 1    
    65   32   34 1    
    66   32  100 1    
    67   33  101 1    
    68   33  102 1    
    69   33  103 1    
    70   34   35 am   BACKBONE|DICT|INTERRES
    71   34  104 1    
    72   35   36 2    
    73   37   38 2    
    74   37   39 am   BACKBONE|DICT|INTERRES
    75   39   40 1    
    76   39  105 1    
    77   40   41 1    
    78   40   42 1    
    79   40  106 1    
    80   41  107 1    
    81   41  108 1    
    82   41  109 1    
    83   42   43 2    
    84   42   44 am   BACKBONE|DICT|INTERRES
    85   44   45 1    
    86   44  110 1    
    87   45   46 1    
    88   45   47 1    
    89   45  111 1    
    90   46  112 1    
    91   46  113 1    
    92   46  114 1    
    93   47   48 2    
    94   47   49 am   BACKBONE|DICT|INTERRES
    95   49   50 1    
    96   49  115 1    
    97   50   51 1    
    98   50   52 1    
    99   50  116 1    
   100   51  117 1    
   101   51  118 1    
   102   51  119 1    
   103   52   53 2    
   104   52   54 am   BACKBONE|DICT|INTERRES
   105   54   55 1    
   106   54  120 1    
   107   55   56 1    
   108   55   57 1    
   109   55  121 1    
   110   56  122 1    
   111   56  123 1    
   112   56  124 1    
   113   57   58 2    
   114   57   59 am   BACKBONE|DICT|INTERRES
   115   59   60 1    
   116   59  125 1    
   117   60   61 1    
   118   60   62 1    
   119   60  126 1    
   120   61  127 1    
   121   61  128 1    
   122   61  129 1    
   123   62   63 2    
   124   62   64 am   BACKBONE|DICT|INTERRES
   125   64   65 1    
   126   64  130 1    
   127   65   66 1    
   128   65   69 1    
   129   65  131 1    
   130   66   67 am   BACKBONE|DICT|INTERRES
   131   66   68 2    
   132   67  132 1    
   133   67  133 1    
   134   69   70 1    
   135   69  134 1    
   136   69  135 1    
   137   70   71 1    
   138   71  136 1    
   139   71  137 1    
@<TRIPOS>SUBSTRUCTURE
     1 UNK         1 GROUP             0       ****    0 ROOT    
