@<TRIPOS>MOLECULE
3R136
137   139    1
SMALL
USER_CHARGES


@<TRIPOS>ATOM
      1 CA         30.6858   27.0596   -2.6785 C.3       0 UNK        -0.1979 
      2 C          29.7961   25.9941   -2.0561 C.2       0 UNK         0.4864 
      3 O          28.6025   26.2346   -1.8627 O.2       0 UNK        -0.5359 
      4 N          30.3720   24.8311   -1.7184 N.am      1 UNK        -0.4318 
      5 CA         29.6792   23.6774   -1.1284 C.3       1 UNK         0.0824 
      6 C6         30.6867   22.5913   -0.6714 C.3       12 UNK        -0.0944 
      7 S7         31.6095   23.1321    0.8059 S.3       12 UNK        -0.2672 
      8 C8         30.6584   22.3166    2.1284 C.3       12 UNK         0.0333 
      9 C9         30.9432   22.9422    3.4856 C.ar      12 UNK        -0.0807 
     10 C10        32.1511   22.6832    4.1403 C.ar      12 UNK        -0.0894 
     11 C11        32.4273   23.2768    5.3758 C.ar      12 UNK        -0.0804 
     12 C12        31.4723   24.1080    5.9685 C.ar      12 UNK        -0.0824 
     13 C13        30.2695   24.3931    5.3162 C.ar      12 UNK        -0.0762 
     14 C14        30.0039   23.7915    4.0815 C.ar      12 UNK        -0.0782 
     15 C15        29.2691   25.3637    5.9343 C.3       12 UNK         0.0230 
     16 S16        30.0386   26.9775    6.3058 S.3       12 UNK        -0.2608 
     17 C17        28.6588   28.1489    6.0603 C.3       12 UNK        -0.0989 
     18 CA         28.8808   29.0292    4.8062 C.3       5 UNK         0.0716 
     19 N          29.0067   28.2209    3.5950 N.am      5 UNK        -0.4135 
     20 C          29.2860   28.6587    2.3642 C.2       4 UNK         0.5031 
     21 O          29.4365   29.8449    2.0705 O.2       4 UNK        -0.5229 
     22 CA         29.4564   27.5859    1.2778 C.3       4 UNK         0.0329 
     23 CB         30.5456   26.5704    1.6635 C.3       4 UNK        -0.2001 
     24 N          28.2167   26.9082    0.8768 N.am      4 UNK        -0.4303 
     25 C          27.3361   26.2325    1.6291 C.2       3 UNK         0.5044 
     26 O          27.4562   26.0412    2.8389 O.2       3 UNK        -0.5152 
     27 CA         26.1188   25.6476    0.8904 C.3       3 UNK         0.0319 
     28 CB         25.4440   26.6748   -0.0380 C.3       3 UNK        -0.2001 
     29 N          26.4694   24.4462    0.1292 N.am      3 UNK        -0.4354 
     30 C          26.7831   23.2662    0.6836 C.2       2 UNK         0.4964 
     31 O          26.7747   23.0563    1.8959 O.2       2 UNK        -0.5047 
     32 CA         27.1831   22.1095   -0.2505 C.3       2 UNK         0.0288 
     33 CB         26.0557   21.0641   -0.2978 C.3       2 UNK        -0.2113 
     34 N          27.5215   22.4834   -1.6303 N.am      2 UNK        -0.4145 
     35 C          28.6183   23.1004   -2.1016 C.2       1 UNK         0.5006 
     36 O          28.8060   23.2014   -3.3155 O.2       1 UNK        -0.5103 
     37 C          27.7622   30.0732    4.6398 C.2       5 UNK         0.5055 
     38 O          26.6357   29.7045    4.3016 O.2       5 UNK        -0.5220 
     39 N          28.1154   31.3548    4.8146 N.am      6 UNK        -0.4450 
     40 CA         27.3172   32.5707    4.5831 C.3       6 UNK         0.0367 
     41 CB         26.0414   32.5906    5.4485 C.3       6 UNK        -0.1929 
     42 C          26.9887   32.8608    3.1029 C.2       6 UNK         0.5070 
     43 O          26.8797   34.0319    2.7392 O.2       6 UNK        -0.5237 
     44 N          26.8477   31.8184    2.2746 N.am      7 UNK        -0.4739 
     45 CA         26.5935   31.9022    0.8347 C.3       7 UNK         0.0276 
     46 CB         26.1902   30.5133    0.3116 C.3       7 UNK        -0.1927 
     47 C          27.7908   32.4511    0.0396 C.2       7 UNK         0.5013 
     48 O          27.5855   33.2089   -0.9098 O.2       7 UNK        -0.5193 
     49 N          29.0067   32.0596    0.4372 N.am      8 UNK        -0.4253 
     50 CA         30.2681   32.4630   -0.1757 C.3       8 UNK         0.0242 
     51 CB         30.7559   31.3644   -1.1406 C.3       8 UNK        -0.2000 
     52 C          31.2961   32.7762    0.9173 C.2       8 UNK         0.4948 
     53 O          31.6528   33.9416    1.0949 O.2       8 UNK        -0.5275 
     54 N          31.7445   31.7394    1.6330 N.am      9 UNK        -0.4246 
     55 CA         32.7461   31.7786    2.6957 C.3       9 UNK         0.0261 
     56 CB         34.1411   32.1021    2.1244 C.3       9 UNK        -0.1959 
     57 C          32.7590   30.4048    3.3717 C.2       9 UNK         0.5033 
     58 O          32.4416   29.4098    2.7149 O.2       9 UNK        -0.5390 
     59 N          33.1403   30.3656    4.6556 N.am      10 UNK        -0.4215 
     60 CA         33.2040   29.1528    5.4779 C.3       10 UNK         0.0240 
     61 CB         33.6671   29.5142    6.8989 C.3       10 UNK        -0.1982 
     62 C          34.1036   28.0691    4.8571 C.2       10 UNK         0.4970 
     63 O          35.3101   28.2847    4.7239 O.2       10 UNK        -0.4916 
     64 N          33.4778   26.9541    4.4640 N.am      11 UNK        -0.4279 
     65 CA         34.0755   25.8277    3.7279 C.3       11 UNK         0.1003 
     66 C          34.5537   26.1684    2.2817 C.2       11 UNK         0.5709 
     67 N          34.1627   27.2930    1.6920 N.am      11 UNK        -0.7358 
     68 O          35.2757   25.3872    1.6663 O.2       11 UNK        -0.4999 
     69 C69        35.1512   25.0389    4.5386 C.3       12 UNK        -0.0954 
     70 S70        34.6826   24.6285    6.2570 S.3       12 UNK        -0.2268 
     71 C71        33.7721   23.0613    6.0545 C.3       12 UNK         0.0203 
     72 H72        30.3397   27.2939   -3.6847 H         1 UNK         0.0888 
     73 H73        30.6504   27.9725   -2.0846 H         1 UNK         0.0888 
     74 H74        31.7249   26.7371   -2.7422 H         1 UNK         0.0888 
     75 H75        31.3540   24.6931   -1.9072 H         1 UNK         0.3017 
     76 H76        29.1712   24.0652   -0.2481 H         1 UNK         0.0873 
     77 H77        30.1989   21.6416   -0.4491 H         1 UNK         0.0745 
     78 H78        31.3995   22.3704   -1.4681 H         1 UNK         0.0745 
     79 H79        29.5933   22.3854    1.9065 H         1 UNK         0.0705 
     80 H80        30.9034   21.2537    2.1496 H         1 UNK         0.0705 
     81 H81        32.8858   22.0430    3.6711 H         1 UNK         0.1334 
     82 H82        31.6880   24.5734    6.9209 H         1 UNK         0.1417 
     83 H83        29.0717   23.9997    3.5719 H         1 UNK         0.1562 
     84 H84        28.8693   24.9363    6.8547 H         1 UNK         0.0748 
     85 H85        28.4203   25.5049    5.2648 H         1 UNK         0.0748 
     86 H86        28.5907   28.7726    6.9537 H         1 UNK         0.0940 
     87 H87        27.7116   27.6094    5.9965 H         1 UNK         0.0940 
     88 H88        29.8289   29.5577    4.9264 H         1 UNK         0.0703 
     89 H89        28.7578   27.2417    3.6811 H         1 UNK         0.3081 
     90 H90        29.8089   28.1114    0.3893 H         1 UNK         0.0719 
     91 H91        30.2186   25.8980    2.4522 H         1 UNK         0.0809 
     92 H92        31.4410   27.0743    2.0227 H         1 UNK         0.0809 
     93 H93        30.8426   25.9661    0.8096 H         1 UNK         0.0809 
     94 H94        28.0480   26.9135   -0.1259 H         1 UNK         0.2990 
     95 H95        25.3865   25.3661    1.6505 H         1 UNK         0.0690 
     96 H96        24.5054   26.2867   -0.4339 H         1 UNK         0.0788 
     97 H97        26.0725   26.9458   -0.8870 H         1 UNK         0.0788 
     98 H98        25.2079   27.5918    0.5031 H         1 UNK         0.0788 
     99 H99        26.5138   24.5408   -0.8758 H         1 UNK         0.2993 
    100 H100       28.0493   21.6249    0.1989 H         1 UNK         0.0949 
    101 H101       26.3527   20.1840   -0.8690 H         1 UNK         0.0767 
    102 H102       25.7946   20.7205    0.7045 H         1 UNK         0.0767 
    103 H103       25.1485   21.4681   -0.7494 H         1 UNK         0.0767 
    104 H104       26.8610   22.1595   -2.3219 H         1 UNK         0.3013 
    105 H105       29.0796   31.5359    5.0578 H         1 UNK         0.3121 
    106 H106       27.9470   33.3962    4.9189 H         1 UNK         0.0774 
    107 H107       25.5321   33.5514    5.3639 H         1 UNK         0.0815 
    108 H108       25.3286   31.8230    5.1464 H         1 UNK         0.0815 
    109 H109       26.2734   32.4388    6.5025 H         1 UNK         0.0815 
    110 H110       26.9116   30.8914    2.6809 H         1 UNK         0.2987 
    111 H111       25.7545   32.5843    0.6804 H         1 UNK         0.0949 
    112 H112       26.9827   29.7788    0.4596 H         1 UNK         0.0806 
    113 H113       25.2947   30.1468    0.8136 H         1 UNK         0.0806 
    114 H114       25.9719   30.5464   -0.7567 H         1 UNK         0.0806 
    115 H115       29.0769   31.4004    1.2120 H         1 UNK         0.3010 
    116 H116       30.1259   33.3815   -0.7497 H         1 UNK         0.0829 
    117 H117       30.0687   31.2469   -1.9786 H         1 UNK         0.0813 
    118 H118       31.7333   31.6137   -1.5556 H         1 UNK         0.0813 
    119 H119       30.8441   30.3950   -0.6486 H         1 UNK         0.0813 
    120 H120       31.3496   30.8145    1.4868 H         1 UNK         0.3038 
    121 H121       32.4547   32.5361    3.4259 H         1 UNK         0.0769 
    122 H122       34.1739   33.0947    1.6756 H         1 UNK         0.0811 
    123 H123       34.4376   31.3804    1.3620 H         1 UNK         0.0811 
    124 H124       34.9010   32.0804    2.9065 H         1 UNK         0.0811 
    125 H125       33.4280   31.2246    5.1016 H         1 UNK         0.3204 
    126 H126       32.1874   28.7650    5.5483 H         1 UNK         0.0748 
    127 H127       32.9817   30.2158    7.3748 H         1 UNK         0.0771 
    128 H128       33.7089   28.6255    7.5305 H         1 UNK         0.0771 
    129 H129       34.6621   29.9611    6.8986 H         1 UNK         0.0771 
    130 H130       32.4817   26.8848    4.6123 H         1 UNK         0.2980 
    131 H131       33.2410   25.1511    3.5571 H         1 UNK         0.0545 
    132 H132       34.4786   27.4869    0.7564 H         1 UNK         0.3459 
    133 H133       33.5588   27.9579    2.1674 H         1 UNK         0.3459 
    134 H134       35.4059   24.1103    4.0251 H         1 UNK         0.0616 
    135 H135       36.0757   25.6165    4.5856 H         1 UNK         0.0616 
    136 H136       33.6051   22.6216    7.0386 H         1 UNK         0.0634 
    137 H137       34.3886   22.3532    5.4988 H         1 UNK         0.0634 
@<TRIPOS>BOND
     1    1    2 1    
     2    1   72 1    
     3    1   73 1    
     4    1   74 1    
     5    2    3 2    
     6    2    4 am   BACKBONE|DICT|INTERRES
     7    4    5 1    
     8    4   75 1    
     9    5    6 1    
    10    5   35 1    
    11    5   76 1    
    12    6    7 1    
    13    6   77 1    
    14    6   78 1    
    15    7    8 1    
    16    8    9 1    
    17    8   79 1    
    18    8   80 1    
    19    9   10 ar   
    20    9   14 ar   
    21   10   11 ar   
    22   10   81 1    
    23   11   12 ar   
    24   11   71 1    
    25   12   13 ar   
    26   12   82 1    
    27   13   14 ar   
    28   13   15 1    
    29   14   83 1    
    30   15   16 1    
    31   15   84 1    
    32   15   85 1    
    33   16   17 1    
    34   17   18 1    
    35   17   86 1    
    36   17   87 1    
    37   18   19 1    
    38   18   37 1    
    39   18   88 1    
    40   19   20 am   BACKBONE|DICT|INTERRES
    41   19   89 1    
    42   20   21 2    
    43   20   22 1    
    44   22   23 1    
    45   22   24 1    
    46   22   90 1    
    47   23   91 1    
    48   23   92 1    
    49   23   93 1    
    50   24   25 am   BACKBONE|DICT|INTERRES
    51   24   94 1    
    52   25   26 2    
    53   25   27 1    
    54   27   28 1    
    55   27   29 1    
    56   27   95 1    
    57   28   96 1    
    58   28   97 1    
    59   28   98 1    
    60   29   30 am   BACKBONE|DICT|INTERRES
    61   29   99 1    
    62   30   31 2    
    63   30   32 1    
    64   32   33 1    
    65   32   34 1    
    66   32  100 1    
    67   33  101 1    
    68   33  102 1    
    69   33  103 1    
    70   34   35 am   BACKBONE|DICT|INTERRES
    71   34  104 1    
    72   35   36 2    
    73   37   38 2    
    74   37   39 am   BACKBONE|DICT|INTERRES
    75   39   40 1    
    76   39  105 1    
    77   40   41 1    
    78   40   42 1    
    79   40  106 1    
    80   41  107 1    
    81   41  108 1    
    82   41  109 1    
    83   42   43 2    
    84   42   44 am   BACKBONE|DICT|INTERRES
    85   44   45 1    
    86   44  110 1    
    87   45   46 1    
    88   45   47 1    
    89   45  111 1    
    90   46  112 1    
    91   46  113 1    
    92   46  114 1    
    93   47   48 2    
    94   47   49 am   BACKBONE|DICT|INTERRES
    95   49   50 1    
    96   49  115 1    
    97   50   51 1    
    98   50   52 1    
    99   50  116 1    
   100   51  117 1    
   101   51  118 1    
   102   51  119 1    
   103   52   53 2    
   104   52   54 am   BACKBONE|DICT|INTERRES
   105   54   55 1    
   106   54  120 1    
   107   55   56 1    
   108   55   57 1    
   109   55  121 1    
   110   56  122 1    
   111   56  123 1    
   112   56  124 1    
   113   57   58 2    
   114   57   59 am   BACKBONE|DICT|INTERRES
   115   59   60 1    
   116   59  125 1    
   117   60   61 1    
   118   60   62 1    
   119   60  126 1    
   120   61  127 1    
   121   61  128 1    
   122   61  129 1    
   123   62   63 2    
   124   62   64 am   BACKBONE|DICT|INTERRES
   125   64   65 1    
   126   64  130 1    
   127   65   66 1    
   128   65   69 1    
   129   65  131 1    
   130   66   67 am   BACKBONE|DICT|INTERRES
   131   66   68 2    
   132   67  132 1    
   133   67  133 1    
   134   69   70 1    
   135   69  134 1    
   136   69  135 1    
   137   70   71 1    
   138   71  136 1    
   139   71  137 1    
@<TRIPOS>SUBSTRUCTURE
     1 UNK         1 GROUP             0       ****    0 ROOT    
