@<TRIPOS>MOLECULE
3R136
137   139    1
SMALL
USER_CHARGES


@<TRIPOS>ATOM
      1 CA         27.5185   17.8858    2.2346 C.3       0 UNK        -0.1979 
      2 C          27.7589   19.2539    1.6148 C.2       0 UNK         0.4864 
      3 O          27.6838   19.3967    0.3929 O.2       0 UNK        -0.5359 
      4 N          28.0343   20.2689    2.4441 N.am      1 UNK        -0.4318 
      5 CA         28.3257   21.6535    2.0465 C.3       1 UNK         0.0824 
      6 C6         29.1521   22.3963    3.1294 C.3       12 UNK        -0.0944 
      7 S7         30.7222   21.5594    3.5475 S.3       12 UNK        -0.2672 
      8 C8         31.8160   22.0430    2.1703 C.3       12 UNK         0.0333 
      9 C9         31.9710   23.5524    2.0559 C.ar      12 UNK        -0.0807 
     10 C10        32.7191   24.2578    3.0046 C.ar      12 UNK        -0.0894 
     11 C11        32.8338   25.6491    2.9261 C.ar      12 UNK        -0.0804 
     12 C12        32.1988   26.3273    1.8815 C.ar      12 UNK        -0.0824 
     13 C13        31.4577   25.6339    0.9205 C.ar      12 UNK        -0.0762 
     14 C14        31.3509   24.2440    1.0098 C.ar      12 UNK        -0.0782 
     15 C15        30.7453   26.3978   -0.1857 C.3       12 UNK         0.0230 
     16 S16        31.9269   27.2830   -1.2521 S.3       12 UNK        -0.2608 
     17 C17        30.8568   28.5012   -2.1068 C.3       12 UNK        -0.0989 
     18 CA         30.1423   29.5976   -1.2528 C.3       5 UNK         0.0716 
     19 N          28.7585   29.2116   -0.9586 N.am      5 UNK        -0.4135 
     20 C          27.8239   29.9921   -0.3999 C.2       4 UNK         0.5031 
     21 O          28.0194   31.1698   -0.0891 O.2       4 UNK        -0.5229 
     22 CA         26.4337   29.3685   -0.1520 C.3       4 UNK         0.0329 
     23 CB         25.3051   30.3547   -0.5043 C.3       4 UNK        -0.2001 
     24 N          26.2081   28.1115   -0.8764 N.am      4 UNK        -0.4303 
     25 C          26.5431   26.8959   -0.4273 C.2       3 UNK         0.5044 
     26 O          27.1520   26.6943    0.6242 O.2       3 UNK        -0.5152 
     27 CA         26.1667   25.7122   -1.3229 C.3       3 UNK         0.0319 
     28 CB         27.2820   25.4052   -2.3394 C.3       3 UNK        -0.2001 
     29 N          25.9133   24.5465   -0.4810 N.am      3 UNK        -0.4354 
     30 C          25.1682   23.4896   -0.8216 C.2       2 UNK         0.4964 
     31 O          24.6461   23.3584   -1.9307 O.2       2 UNK        -0.5047 
     32 CA         24.9808   22.3988    0.2515 C.3       2 UNK         0.0288 
     33 CB         24.1164   21.2212   -0.2390 C.3       2 UNK        -0.2113 
     34 N          26.2608   21.8703    0.7264 N.am      2 UNK        -0.4145 
     35 C          27.0379   22.4229    1.6655 C.2       1 UNK         0.5006 
     36 O          26.7563   23.4853    2.2238 O.2       1 UNK        -0.5103 
     37 C          30.9088   30.0133    0.0251 C.2       5 UNK         0.5055 
     38 O          30.5718   29.5464    1.1148 O.2       5 UNK        -0.5220 
     39 N          31.9339   30.8619   -0.1386 N.am      6 UNK        -0.4450 
     40 CA         32.8644   31.3160    0.9048 C.3       6 UNK         0.0367 
     41 CB         33.8365   30.1801    1.2732 C.3       6 UNK        -0.1929 
     42 C          32.1485   31.9115    2.1350 C.2       6 UNK         0.5070 
     43 O          32.3515   31.4489    3.2624 O.2       6 UNK        -0.5237 
     44 N          31.3017   32.9148    1.8597 N.am      7 UNK        -0.4739 
     45 CA         30.4804   33.6800    2.8038 C.3       7 UNK         0.0276 
     46 CB         31.3714   34.5346    3.7313 C.3       7 UNK        -0.1927 
     47 C          29.4770   32.7984    3.5701 C.2       7 UNK         0.5013 
     48 O          29.4979   32.7730    4.8009 O.2       7 UNK        -0.5193 
     49 N          28.6154   32.0954    2.8178 N.am      8 UNK        -0.4253 
     50 CA         27.5524   31.2060    3.3058 C.3       8 UNK         0.0242 
     51 CB         26.4758   31.9950    4.0830 C.3       8 UNK        -0.2000 
     52 C          28.1031   29.9957    4.0833 C.2       8 UNK         0.4948 
     53 O          27.6061   29.6782    5.1656 O.2       8 UNK        -0.5275 
     54 N          29.1255   29.3497    3.5052 N.am      9 UNK        -0.4246 
     55 CA         29.8601   28.1957    4.0254 C.3       9 UNK         0.0261 
     56 CB         28.9691   26.9366    4.0787 C.3       9 UNK        -0.1959 
     57 C          30.6052   28.4857    5.3398 C.2       9 UNK         0.5033 
     58 O          30.6713   27.6151    6.2102 O.2       9 UNK        -0.5390 
     59 N          31.1770   29.6925    5.4553 N.am      10 UNK        -0.4215 
     60 CA         32.0179   30.0847    6.5847 C.3       10 UNK         0.0240 
     61 CB         31.9487   31.6058    6.7911 C.3       10 UNK        -0.1982 
     62 C          33.4688   29.6268    6.3862 C.2       10 UNK         0.4970 
     63 O          34.0534   29.0827    7.3235 O.2       10 UNK        -0.4916 
     64 N          34.0223   29.8651    5.1857 N.am      11 UNK        -0.4279 
     65 CA         35.4329   29.6035    4.8316 C.3       11 UNK         0.1003 
     66 C          36.4689   30.4219    5.6679 C.2       11 UNK         0.5709 
     67 N          36.0923   31.5527    6.2543 N.am      11 UNK        -0.7358 
     68 O          37.6385   30.0561    5.7616 O.2       11 UNK        -0.4999 
     69 C69        35.7675   28.0824    4.7414 C.3       12 UNK        -0.0954 
     70 S70        35.0401   27.2903    3.2690 S.3       12 UNK        -0.2268 
     71 C71        33.6132   26.4217    3.9831 C.3       12 UNK         0.0203 
     72 H72        28.2345   17.1652    1.8404 H         1 UNK         0.0888 
     73 H73        27.6205   17.9063    3.3195 H         1 UNK         0.0888 
     74 H74        26.5148   17.5364    1.9941 H         1 UNK         0.0888 
     75 H75        28.0704   20.0941    3.4384 H         1 UNK         0.3017 
     76 H76        28.9340   21.6228    1.1403 H         1 UNK         0.0873 
     77 H77        28.5720   22.4802    4.0504 H         1 UNK         0.0745 
     78 H78        29.3630   23.4226    2.8254 H         1 UNK         0.0745 
     79 H79        32.7970   21.5919    2.3259 H         1 UNK         0.0705 
     80 H80        31.4320   21.6189    1.2414 H         1 UNK         0.0705 
     81 H81        33.1935   23.7211    3.8150 H         1 UNK         0.1334 
     82 H82        32.2792   27.4024    1.8105 H         1 UNK         0.1417 
     83 H83        30.7695   23.7021    0.2765 H         1 UNK         0.1562 
     84 H84        30.0482   27.0938    0.2798 H         1 UNK         0.0748 
     85 H85        30.1485   25.7267   -0.8025 H         1 UNK         0.0748 
     86 H86        30.1404   27.9597   -2.7272 H         1 UNK         0.0940 
     87 H87        31.5073   29.0048   -2.8238 H         1 UNK         0.0940 
     88 H88        30.0629   30.4928   -1.8737 H         1 UNK         0.0703 
     89 H89        28.5154   28.2494   -1.1310 H         1 UNK         0.3081 
     90 H90        26.3698   29.1632    0.9182 H         1 UNK         0.0719 
     91 H91        25.3316   30.6385   -1.5571 H         1 UNK         0.0809 
     92 H92        24.3243   29.9270   -0.2954 H         1 UNK         0.0809 
     93 H93        25.3838   31.2712    0.0824 H         1 UNK         0.0809 
     94 H94        25.7397   28.1882   -1.7689 H         1 UNK         0.2990 
     95 H95        25.2496   25.9683   -1.8583 H         1 UNK         0.0690 
     96 H96        27.5435   26.2888   -2.9230 H         1 UNK         0.0788 
     97 H97        26.9707   24.6354   -3.0457 H         1 UNK         0.0788 
     98 H98        28.1875   25.0528   -1.8468 H         1 UNK         0.0788 
     99 H99        26.2979   24.6029    0.4589 H         1 UNK         0.2993 
    100 H100       24.4573   22.8649    1.0894 H         1 UNK         0.0949 
    101 H101       23.9548   20.4914    0.5546 H         1 UNK         0.0767 
    102 H102       23.1337   21.5647   -0.5655 H         1 UNK         0.0767 
    103 H103       24.5796   20.7037   -1.0802 H         1 UNK         0.0767 
    104 H104       26.5814   20.9968    0.3167 H         1 UNK         0.3013 
    105 H105       32.1259   31.2037   -1.0703 H         1 UNK         0.3121 
    106 H106       33.4541   32.1222    0.4657 H         1 UNK         0.0774 
    107 H107       34.6670   30.5682    1.8599 H         1 UNK         0.0815 
    108 H108       33.3469   29.4055    1.8620 H         1 UNK         0.0815 
    109 H109       34.2608   29.7087    0.3869 H         1 UNK         0.0815 
    110 H110       31.1961   33.1739    0.8883 H         1 UNK         0.2987 
    111 H111       29.8809   34.3704    2.2078 H         1 UNK         0.0949 
    112 H112       32.0122   33.9196    4.3625 H         1 UNK         0.0806 
    113 H113       32.0122   35.2040    3.1578 H         1 UNK         0.0806 
    114 H114       30.7649   35.1551    4.3923 H         1 UNK         0.0806 
    115 H115       28.7014   32.1431    1.8085 H         1 UNK         0.3010 
    116 H116       27.0647   30.7992    2.4222 H         1 UNK         0.0829 
    117 H117       26.0904   32.8267    3.4935 H         1 UNK         0.0813 
    118 H118       25.6284   31.3548    4.3313 H         1 UNK         0.0813 
    119 H119       26.8616   32.3969    5.0204 H         1 UNK         0.0813 
    120 H120       29.4815   29.6858    2.6113 H         1 UNK         0.3038 
    121 H121       30.6402   28.0041    3.2933 H         1 UNK         0.0769 
    122 H122       28.1828   27.0273    4.8282 H         1 UNK         0.0811 
    123 H123       29.5584   26.0527    4.3267 H         1 UNK         0.0811 
    124 H124       28.4972   26.7453    3.1146 H         1 UNK         0.0811 
    125 H125       31.1146   30.3489    4.6843 H         1 UNK         0.3204 
    126 H126       31.6392   29.6136    7.4945 H         1 UNK         0.0748 
    127 H127       32.5698   31.9158    7.6325 H         1 UNK         0.0771 
    128 H128       32.2904   32.1514    5.9120 H         1 UNK         0.0771 
    129 H129       30.9294   31.9272    7.0059 H         1 UNK         0.0771 
    130 H130       33.4704   30.3498    4.4835 H         1 UNK         0.2980 
    131 H131       35.5601   30.0137    3.8320 H         1 UNK         0.0545 
    132 H132       36.7682   32.0820    6.7821 H         1 UNK         0.3459 
    133 H133       35.1447   31.8825    6.1711 H         1 UNK         0.3459 
    134 H134       36.8430   27.9230    4.6528 H         1 UNK         0.0616 
    135 H135       35.4660   27.5528    5.6457 H         1 UNK         0.0616 
    136 H136       33.9609   25.7539    4.7726 H         1 UNK         0.0634 
    137 H137       32.9564   27.1486    4.4572 H         1 UNK         0.0634 
@<TRIPOS>BOND
     1    1    2 1    
     2    1   72 1    
     3    1   73 1    
     4    1   74 1    
     5    2    3 2    
     6    2    4 am   BACKBONE|DICT|INTERRES
     7    4    5 1    
     8    4   75 1    
     9    5    6 1    
    10    5   35 1    
    11    5   76 1    
    12    6    7 1    
    13    6   77 1    
    14    6   78 1    
    15    7    8 1    
    16    8    9 1    
    17    8   79 1    
    18    8   80 1    
    19    9   10 ar   
    20    9   14 ar   
    21   10   11 ar   
    22   10   81 1    
    23   11   12 ar   
    24   11   71 1    
    25   12   13 ar   
    26   12   82 1    
    27   13   14 ar   
    28   13   15 1    
    29   14   83 1    
    30   15   16 1    
    31   15   84 1    
    32   15   85 1    
    33   16   17 1    
    34   17   18 1    
    35   17   86 1    
    36   17   87 1    
    37   18   19 1    
    38   18   37 1    
    39   18   88 1    
    40   19   20 am   BACKBONE|DICT|INTERRES
    41   19   89 1    
    42   20   21 2    
    43   20   22 1    
    44   22   23 1    
    45   22   24 1    
    46   22   90 1    
    47   23   91 1    
    48   23   92 1    
    49   23   93 1    
    50   24   25 am   BACKBONE|DICT|INTERRES
    51   24   94 1    
    52   25   26 2    
    53   25   27 1    
    54   27   28 1    
    55   27   29 1    
    56   27   95 1    
    57   28   96 1    
    58   28   97 1    
    59   28   98 1    
    60   29   30 am   BACKBONE|DICT|INTERRES
    61   29   99 1    
    62   30   31 2    
    63   30   32 1    
    64   32   33 1    
    65   32   34 1    
    66   32  100 1    
    67   33  101 1    
    68   33  102 1    
    69   33  103 1    
    70   34   35 am   BACKBONE|DICT|INTERRES
    71   34  104 1    
    72   35   36 2    
    73   37   38 2    
    74   37   39 am   BACKBONE|DICT|INTERRES
    75   39   40 1    
    76   39  105 1    
    77   40   41 1    
    78   40   42 1    
    79   40  106 1    
    80   41  107 1    
    81   41  108 1    
    82   41  109 1    
    83   42   43 2    
    84   42   44 am   BACKBONE|DICT|INTERRES
    85   44   45 1    
    86   44  110 1    
    87   45   46 1    
    88   45   47 1    
    89   45  111 1    
    90   46  112 1    
    91   46  113 1    
    92   46  114 1    
    93   47   48 2    
    94   47   49 am   BACKBONE|DICT|INTERRES
    95   49   50 1    
    96   49  115 1    
    97   50   51 1    
    98   50   52 1    
    99   50  116 1    
   100   51  117 1    
   101   51  118 1    
   102   51  119 1    
   103   52   53 2    
   104   52   54 am   BACKBONE|DICT|INTERRES
   105   54   55 1    
   106   54  120 1    
   107   55   56 1    
   108   55   57 1    
   109   55  121 1    
   110   56  122 1    
   111   56  123 1    
   112   56  124 1    
   113   57   58 2    
   114   57   59 am   BACKBONE|DICT|INTERRES
   115   59   60 1    
   116   59  125 1    
   117   60   61 1    
   118   60   62 1    
   119   60  126 1    
   120   61  127 1    
   121   61  128 1    
   122   61  129 1    
   123   62   63 2    
   124   62   64 am   BACKBONE|DICT|INTERRES
   125   64   65 1    
   126   64  130 1    
   127   65   66 1    
   128   65   69 1    
   129   65  131 1    
   130   66   67 am   BACKBONE|DICT|INTERRES
   131   66   68 2    
   132   67  132 1    
   133   67  133 1    
   134   69   70 1    
   135   69  134 1    
   136   69  135 1    
   137   70   71 1    
   138   71  136 1    
   139   71  137 1    
@<TRIPOS>SUBSTRUCTURE
     1 UNK         1 GROUP             0       ****    0 ROOT    
