@<TRIPOS>MOLECULE
3R136
137   139    1
SMALL
USER_CHARGES


@<TRIPOS>ATOM
      1 CA         30.7327   22.7335    4.2357 C.3       0 UNK        -0.1979 
      2 C          30.5215   22.1165    2.8614 C.2       0 UNK         0.4864 
      3 O          30.3987   20.8966    2.7479 O.2       0 UNK        -0.5359 
      4 N          30.4827   22.9548    1.8177 N.am      1 UNK        -0.4318 
      5 CA         30.3234   22.5684    0.4084 C.3       1 UNK         0.0824 
      6 C6         30.5288   23.7613   -0.5693 C.3       12 UNK        -0.0944 
      7 S7         31.8810   24.9061   -0.1322 S.3       12 UNK        -0.2672 
      8 C8         30.9395   26.3988    0.3279 C.3       12 UNK         0.0333 
      9 C9         30.3618   26.2998    1.7330 C.ar      12 UNK        -0.0807 
     10 C10        31.1132   26.7630    2.8133 C.ar      12 UNK        -0.0894 
     11 C11        30.6052   26.7068    4.1111 C.ar      12 UNK        -0.0804 
     12 C12        29.3303   26.1803    4.3302 C.ar      12 UNK        -0.0824 
     13 C13        28.5605   25.7109    3.2606 C.ar      12 UNK        -0.0762 
     14 C14        29.0846   25.7731    1.9609 C.ar      12 UNK        -0.0782 
     15 C15        27.1775   25.1251    3.5394 C.3       12 UNK         0.0230 
     16 S16        25.8790   25.7043    2.3975 S.3       12 UNK        -0.2608 
     17 C17        25.8309   27.5016    2.7365 C.3       12 UNK        -0.0989 
     18 CA         26.7102   28.3079    1.7479 C.3       5 UNK         0.0716 
     19 N          26.4354   27.9574    0.3488 N.am      5 UNK        -0.4135 
     20 C          27.2883   28.0798   -0.6736 C.2       4 UNK         0.5031 
     21 O          28.3588   28.6822   -0.5791 O.2       4 UNK        -0.5229 
     22 CA         26.8785   27.4334   -2.0150 C.3       4 UNK         0.0329 
     23 CB         28.0977   27.1339   -2.9071 C.3       4 UNK        -0.2001 
     24 N          26.0979   26.1981   -1.8634 N.am      4 UNK        -0.4303 
     25 C          24.7990   26.1049   -1.5548 C.2       3 UNK         0.5044 
     26 O          24.0995   27.0820   -1.2884 O.2       3 UNK        -0.5152 
     27 CA         24.1781   24.6952   -1.5027 C.3       3 UNK         0.0319 
     28 CB         24.0505   24.0856   -2.9131 C.3       3 UNK        -0.2001 
     29 N          24.8354   23.7682   -0.5674 N.am      3 UNK        -0.4354 
     30 C          26.0813   23.2756   -0.6154 C.2       2 UNK         0.4964 
     31 O          26.8877   23.5438   -1.5093 O.2       2 UNK        -0.5047 
     32 CA         26.4802   22.3433    0.5460 C.3       2 UNK         0.0288 
     33 CB         25.9936   20.8991    0.3106 C.3       2 UNK        -0.2113 
     34 N          27.9207   22.4137    0.8258 N.am      2 UNK        -0.4145 
     35 C          28.9485   21.9373    0.1026 C.2       1 UNK         0.5006 
     36 O          28.8555   21.1046   -0.8011 O.2       1 UNK        -0.5103 
     37 C          26.7054   29.8228    2.0388 C.2       5 UNK         0.5055 
     38 O          26.9117   30.2166    3.1874 O.2       5 UNK        -0.5220 
     39 N          26.5381   30.6518    0.9982 N.am      6 UNK        -0.4450 
     40 CA         26.8610   32.0792    1.0142 C.3       6 UNK         0.0367 
     41 CB         26.3303   32.7378   -0.2687 C.3       6 UNK        -0.1929 
     42 C          28.3749   32.3284    1.1642 C.2       6 UNK         0.5070 
     43 O          28.7631   33.3400    1.7478 O.2       6 UNK        -0.5237 
     44 N          29.2087   31.3860    0.6954 N.am      7 UNK        -0.4739 
     45 CA         30.6679   31.3868    0.8463 C.3       7 UNK         0.0276 
     46 CB         31.2849   30.5712   -0.3047 C.3       7 UNK        -0.1927 
     47 C          31.1144   30.8742    2.2325 C.2       7 UNK         0.5013 
     48 O          32.0683   30.0998    2.3267 O.2       7 UNK        -0.5193 
     49 N          30.4297   31.3262    3.2933 N.am      8 UNK        -0.4253 
     50 CA         30.6155   30.9092    4.6882 C.3       8 UNK         0.0242 
     51 CB         29.5781   31.6199    5.5705 C.3       8 UNK        -0.2000 
     52 C          32.0356   31.1310    5.2404 C.2       8 UNK         0.4948 
     53 O          32.4641   30.3891    6.1248 O.2       8 UNK        -0.5275 
     54 N          32.7551   32.1154    4.6836 N.am      9 UNK        -0.4246 
     55 CA         34.1556   32.4144    4.9873 C.3       9 UNK         0.0261 
     56 CB         34.5633   33.7090    4.2658 C.3       9 UNK        -0.1959 
     57 C          35.1321   31.2755    4.6373 C.2       9 UNK         0.5033 
     58 O          36.1919   31.1943    5.2603 O.2       9 UNK        -0.5390 
     59 N          34.7696   30.4006    3.6839 N.am      10 UNK        -0.4215 
     60 CA         35.5838   29.2515    3.2700 C.3       10 UNK         0.0240 
     61 CB         35.0075   28.6468    1.9800 C.3       10 UNK        -0.1982 
     62 C          35.7409   28.1727    4.3593 C.2       10 UNK         0.4970 
     63 O          36.6950   27.3967    4.2924 O.2       10 UNK        -0.4916 
     64 N          34.8336   28.1549    5.3450 N.am      11 UNK        -0.4279 
     65 CA         34.9271   27.3170    6.5501 C.3       11 UNK         0.1003 
     66 C          35.8377   27.9234    7.6598 C.2       11 UNK         0.5709 
     67 N          36.3904   29.1227    7.5057 N.am      11 UNK        -0.7358 
     68 O          36.0637   27.2817    8.6831 O.2       11 UNK        -0.4999 
     69 C69        33.5245   26.9472    7.1027 C.3       12 UNK        -0.0954 
     70 S70        32.5471   25.9560    5.9234 S.3       12 UNK        -0.2268 
     71 C71        31.4370   27.2323    5.2666 C.3       12 UNK         0.0203 
     72 H72        31.0826   23.7630    4.1654 H         1 UNK         0.0888 
     73 H73        31.4762   22.1666    4.7952 H         1 UNK         0.0888 
     74 H74        29.8006   22.7269    4.7998 H         1 UNK         0.0888 
     75 H75        30.6309   23.9441    1.9724 H         1 UNK         0.3017 
     76 H76        31.0862   21.8163    0.1963 H         1 UNK         0.0873 
     77 H77        29.6122   24.3439   -0.6812 H         1 UNK         0.0745 
     78 H78        30.7384   23.3754   -1.5688 H         1 UNK         0.0745 
     79 H79        31.6108   27.2569    0.2702 H         1 UNK         0.0705 
     80 H80        30.1510   26.5913   -0.4001 H         1 UNK         0.0705 
     81 H81        32.0966   27.1766    2.6443 H         1 UNK         0.1334 
     82 H82        28.9409   26.1351    5.3382 H         1 UNK         0.1417 
     83 H83        28.4902   25.4314    1.1251 H         1 UNK         0.1562 
     84 H84        26.8605   25.3513    4.5587 H         1 UNK         0.0748 
     85 H85        27.2404   24.0384    3.4770 H         1 UNK         0.0748 
     86 H86        26.1447   27.6790    3.7672 H         1 UNK         0.0940 
     87 H87        24.7921   27.8305    2.6744 H         1 UNK         0.0940 
     88 H88        27.7445   28.0270    1.9410 H         1 UNK         0.0703 
     89 H89        25.5469   27.5065    0.1659 H         1 UNK         0.3081 
     90 H90        26.2584   28.1661   -2.5352 H         1 UNK         0.0719 
     91 H91        28.7653   26.4063   -2.4443 H         1 UNK         0.0809 
     92 H92        27.7915   26.7375   -3.8753 H         1 UNK         0.0809 
     93 H93        28.6794   28.0363   -3.1010 H         1 UNK         0.0809 
     94 H94        26.5984   25.3191   -1.9767 H         1 UNK         0.2990 
     95 H95        23.1645   24.8214   -1.1181 H         1 UNK         0.0690 
     96 H96        23.5251   23.1311   -2.8844 H         1 UNK         0.0788 
     97 H97        25.0211   23.9179   -3.3807 H         1 UNK         0.0788 
     98 H98        23.4852   24.7462   -3.5719 H         1 UNK         0.0788 
     99 H99        24.2664   23.5084    0.2269 H         1 UNK         0.2993 
    100 H100       25.9915   22.7143    1.4483 H         1 UNK         0.0949 
    101 H101       24.9040   20.8544    0.2963 H         1 UNK         0.0767 
    102 H102       26.3407   20.4995   -0.6427 H         1 UNK         0.0767 
    103 H103       26.3353   20.2306    1.1009 H         1 UNK         0.0767 
    104 H104       28.1714   23.0627    1.5561 H         1 UNK         0.3013 
    105 H105       26.3677   30.2362    0.0944 H         1 UNK         0.3121 
    106 H106       26.3603   32.5350    1.8712 H         1 UNK         0.0774 
    107 H107       25.2506   32.6180   -0.3595 H         1 UNK         0.0815 
    108 H108       26.7930   32.3163   -1.1621 H         1 UNK         0.0815 
    109 H109       26.5372   33.8090   -0.2695 H         1 UNK         0.0815 
    110 H110       28.8143   30.5568    0.2622 H         1 UNK         0.2987 
    111 H111       31.0314   32.4128    0.7574 H         1 UNK         0.0949 
    112 H112       30.9735   29.5273   -0.2656 H         1 UNK         0.0806 
    113 H113       30.9920   30.9703   -1.2758 H         1 UNK         0.0806 
    114 H114       32.3748   30.5900   -0.2632 H         1 UNK         0.0806 
    115 H115       29.6838   31.9873    3.1108 H         1 UNK         0.3010 
    116 H116       30.4128   29.8383    4.7265 H         1 UNK         0.0829 
    117 H117       28.5615   31.3844    5.2536 H         1 UNK         0.0813 
    118 H118       29.6712   31.3077    6.6118 H         1 UNK         0.0813 
    119 H119       29.6973   32.7037    5.5415 H         1 UNK         0.0813 
    120 H120       32.3157   32.6729    3.9657 H         1 UNK         0.3038 
    121 H121       34.2295   32.5835    6.0637 H         1 UNK         0.0769 
    122 H122       34.4864   33.6095    3.1823 H         1 UNK         0.0811 
    123 H123       35.5963   33.9747    4.4958 H         1 UNK         0.0811 
    124 H124       33.9399   34.5490    4.5727 H         1 UNK         0.0811 
    125 H125       33.8623   30.4966    3.2362 H         1 UNK         0.3204 
    126 H126       36.5854   29.6243    3.0452 H         1 UNK         0.0748 
    127 H127       34.9473   29.3895    1.1842 H         1 UNK         0.0771 
    128 H128       35.6334   27.8309    1.6162 H         1 UNK         0.0771 
    129 H129       34.0081   28.2443    2.1360 H         1 UNK         0.0771 
    130 H130       34.0977   28.8479    5.3478 H         1 UNK         0.2980 
    131 H131       35.4111   26.3796    6.2699 H         1 UNK         0.0545 
    132 H132       36.9799   29.4840    8.2384 H         1 UNK         0.3459 
    133 H133       36.2388   29.6738    6.6694 H         1 UNK         0.3459 
    134 H134       33.6163   26.3515    8.0126 H         1 UNK         0.0616 
    135 H135       32.9717   27.8452    7.3847 H         1 UNK         0.0616 
    136 H136       32.0357   28.0739    4.9201 H         1 UNK         0.0634 
    137 H137       30.7949   27.6084    6.0645 H         1 UNK         0.0634 
@<TRIPOS>BOND
     1    1    2 1    
     2    1   72 1    
     3    1   73 1    
     4    1   74 1    
     5    2    3 2    
     6    2    4 am   BACKBONE|DICT|INTERRES
     7    4    5 1    
     8    4   75 1    
     9    5    6 1    
    10    5   35 1    
    11    5   76 1    
    12    6    7 1    
    13    6   77 1    
    14    6   78 1    
    15    7    8 1    
    16    8    9 1    
    17    8   79 1    
    18    8   80 1    
    19    9   10 ar   
    20    9   14 ar   
    21   10   11 ar   
    22   10   81 1    
    23   11   12 ar   
    24   11   71 1    
    25   12   13 ar   
    26   12   82 1    
    27   13   14 ar   
    28   13   15 1    
    29   14   83 1    
    30   15   16 1    
    31   15   84 1    
    32   15   85 1    
    33   16   17 1    
    34   17   18 1    
    35   17   86 1    
    36   17   87 1    
    37   18   19 1    
    38   18   37 1    
    39   18   88 1    
    40   19   20 am   BACKBONE|DICT|INTERRES
    41   19   89 1    
    42   20   21 2    
    43   20   22 1    
    44   22   23 1    
    45   22   24 1    
    46   22   90 1    
    47   23   91 1    
    48   23   92 1    
    49   23   93 1    
    50   24   25 am   BACKBONE|DICT|INTERRES
    51   24   94 1    
    52   25   26 2    
    53   25   27 1    
    54   27   28 1    
    55   27   29 1    
    56   27   95 1    
    57   28   96 1    
    58   28   97 1    
    59   28   98 1    
    60   29   30 am   BACKBONE|DICT|INTERRES
    61   29   99 1    
    62   30   31 2    
    63   30   32 1    
    64   32   33 1    
    65   32   34 1    
    66   32  100 1    
    67   33  101 1    
    68   33  102 1    
    69   33  103 1    
    70   34   35 am   BACKBONE|DICT|INTERRES
    71   34  104 1    
    72   35   36 2    
    73   37   38 2    
    74   37   39 am   BACKBONE|DICT|INTERRES
    75   39   40 1    
    76   39  105 1    
    77   40   41 1    
    78   40   42 1    
    79   40  106 1    
    80   41  107 1    
    81   41  108 1    
    82   41  109 1    
    83   42   43 2    
    84   42   44 am   BACKBONE|DICT|INTERRES
    85   44   45 1    
    86   44  110 1    
    87   45   46 1    
    88   45   47 1    
    89   45  111 1    
    90   46  112 1    
    91   46  113 1    
    92   46  114 1    
    93   47   48 2    
    94   47   49 am   BACKBONE|DICT|INTERRES
    95   49   50 1    
    96   49  115 1    
    97   50   51 1    
    98   50   52 1    
    99   50  116 1    
   100   51  117 1    
   101   51  118 1    
   102   51  119 1    
   103   52   53 2    
   104   52   54 am   BACKBONE|DICT|INTERRES
   105   54   55 1    
   106   54  120 1    
   107   55   56 1    
   108   55   57 1    
   109   55  121 1    
   110   56  122 1    
   111   56  123 1    
   112   56  124 1    
   113   57   58 2    
   114   57   59 am   BACKBONE|DICT|INTERRES
   115   59   60 1    
   116   59  125 1    
   117   60   61 1    
   118   60   62 1    
   119   60  126 1    
   120   61  127 1    
   121   61  128 1    
   122   61  129 1    
   123   62   63 2    
   124   62   64 am   BACKBONE|DICT|INTERRES
   125   64   65 1    
   126   64  130 1    
   127   65   66 1    
   128   65   69 1    
   129   65  131 1    
   130   66   67 am   BACKBONE|DICT|INTERRES
   131   66   68 2    
   132   67  132 1    
   133   67  133 1    
   134   69   70 1    
   135   69  134 1    
   136   69  135 1    
   137   70   71 1    
   138   71  136 1    
   139   71  137 1    
@<TRIPOS>SUBSTRUCTURE
     1 UNK         1 GROUP             0       ****    0 ROOT    
