@<TRIPOS>MOLECULE
3R136
137   139    1
SMALL
USER_CHARGES


@<TRIPOS>ATOM
      1 CA         26.5622   21.9074   -0.2497 C.3       0 UNK        -0.1979 
      2 C          27.8089   22.7482   -0.4739 C.2       0 UNK         0.4864 
      3 O          27.8344   23.9100   -0.0655 O.2       0 UNK        -0.5359 
      4 N          28.8323   22.1746   -1.1234 N.am      1 UNK        -0.4318 
      5 CA         30.1446   22.7594   -1.4460 C.3       1 UNK         0.0824 
      6 C6         30.9866   23.1580   -0.2046 C.3       12 UNK        -0.0944 
      7 S7         31.3932   21.7319    0.8589 S.3       12 UNK        -0.2672 
      8 C8         30.4372   22.1074    2.3719 C.3       12 UNK         0.0333 
      9 C9         30.9145   23.3009    3.2074 C.ar      12 UNK        -0.0807 
     10 C10        32.0109   24.1008    2.8554 C.ar      12 UNK        -0.0894 
     11 C11        32.3779   25.2010    3.6349 C.ar      12 UNK        -0.0804 
     12 C12        31.6427   25.5034    4.7856 C.ar      12 UNK        -0.0824 
     13 C13        30.5795   24.6878    5.1820 C.ar      12 UNK        -0.0762 
     14 C14        30.2183   23.5977    4.3835 C.ar      12 UNK        -0.0782 
     15 C15        29.8658   24.9358    6.5054 C.3       12 UNK         0.0230 
     16 S16        28.0799   25.2254    6.3006 S.3       12 UNK        -0.2608 
     17 C17        27.9771   27.0457    6.1857 C.3       12 UNK        -0.0989 
     18 CA         27.9423   27.5901    4.7349 C.3       5 UNK         0.0716 
     19 N          27.0275   26.8151    3.8821 N.am      5 UNK        -0.4135 
     20 C          26.7903   26.9961    2.5767 C.2       4 UNK         0.5031 
     21 O          27.2101   27.9597    1.9360 O.2       4 UNK        -0.5229 
     22 CA         25.9471   25.9033    1.8987 C.3       4 UNK         0.0329 
     23 CB         24.5102   25.8511    2.4616 C.3       4 UNK        -0.2001 
     24 N          25.9513   25.9877    0.4320 N.am      4 UNK        -0.4303 
     25 C          25.3582   26.8985   -0.3558 C.2       3 UNK         0.5044 
     26 O          24.6766   27.8376    0.0607 O.2       3 UNK        -0.5152 
     27 CA         25.5087   26.6823   -1.8769 C.3       3 UNK         0.0319 
     28 CB         25.0251   27.8884   -2.7131 C.3       3 UNK        -0.2001 
     29 N          26.8523   26.2550   -2.2927 N.am      3 UNK        -0.4354 
     30 C          27.9892   26.9653   -2.2297 C.2       2 UNK         0.4964 
     31 O          28.0765   28.0998   -1.7638 O.2       2 UNK        -0.5047 
     32 CA         29.2417   26.2645   -2.7736 C.3       2 UNK         0.0288 
     33 CB         30.5095   27.1435   -2.7348 C.3       2 UNK        -0.2113 
     34 N          29.4526   25.0388   -2.0133 N.am      2 UNK        -0.4145 
     35 C          30.0497   23.9268   -2.4503 C.2       1 UNK         0.5006 
     36 O          30.5133   23.7958   -3.5846 O.2       1 UNK        -0.5103 
     37 C          27.6757   29.1127    4.7617 C.2       5 UNK         0.5055 
     38 O          28.5938   29.8803    5.0501 O.2       5 UNK        -0.5220 
     39 N          26.4318   29.5258    4.4767 N.am      6 UNK        -0.4450 
     40 CA         26.0249   30.9279    4.3584 C.3       6 UNK         0.0367 
     41 CB         24.4910   31.0076    4.2989 C.3       6 UNK        -0.1929 
     42 C          26.6480   31.6381    3.1422 C.2       6 UNK         0.5070 
     43 O          26.8997   32.8412    3.2160 O.2       6 UNK        -0.5237 
     44 N          26.8853   30.8901    2.0570 N.am      7 UNK        -0.4739 
     45 CA         27.5636   31.3628    0.8505 C.3       7 UNK         0.0276 
     46 CB         26.8099   30.8525   -0.3859 C.3       7 UNK        -0.1927 
     47 C          29.0284   30.9023    0.8401 C.2       7 UNK         0.5013 
     48 O          29.9116   31.7001    0.5198 O.2       7 UNK        -0.5193 
     49 N          29.2775   29.6482    1.2417 N.am      8 UNK        -0.4253 
     50 CA         30.6003   29.0483    1.4160 C.3       8 UNK         0.0242 
     51 CB         30.4676   27.5134    1.3507 C.3       8 UNK        -0.2000 
     52 C          31.2570   29.5337    2.7234 C.2       8 UNK         0.4948 
     53 O          31.5111   28.7392    3.6277 O.2       8 UNK        -0.5275 
     54 N          31.5191   30.8436    2.8050 N.am      9 UNK        -0.4246 
     55 CA         32.1254   31.5048    3.9646 C.3       9 UNK         0.0261 
     56 CB         31.8332   33.0119    3.8851 C.3       9 UNK        -0.1959 
     57 C          33.6397   31.2547    4.0993 C.2       9 UNK         0.5033 
     58 O          34.1937   31.4930    5.1737 O.2       9 UNK        -0.5390 
     59 N          34.2842   30.7866    3.0194 N.am      10 UNK        -0.4215 
     60 CA         35.7309   30.5688    2.8924 C.3       10 UNK         0.0240 
     61 CB         36.0378   30.0827    1.4662 C.3       10 UNK        -0.1982 
     62 C          36.3496   29.6078    3.9253 C.2       10 UNK         0.4970 
     63 O          37.5423   29.7273    4.2090 O.2       10 UNK        -0.4916 
     64 N          35.5432   28.6881    4.4687 N.am      11 UNK        -0.4279 
     65 CA         35.9358   27.7730    5.5519 C.3       11 UNK         0.1003 
     66 C          35.9978   28.4451    6.9564 C.2       11 UNK         0.5709 
     67 N          35.5344   29.6776    7.1378 N.am      11 UNK        -0.7358 
     68 O          36.4890   27.8354    7.9035 O.2       11 UNK        -0.4999 
     69 C69        35.0497   26.4996    5.5819 C.3       12 UNK        -0.0954 
     70 S70        35.1112   25.5502    4.0228 S.3       12 UNK        -0.2268 
     71 C71        33.5634   26.0598    3.2133 C.3       12 UNK         0.0203 
     72 H72        25.7033   22.3752   -0.7300 H         1 UNK         0.0888 
     73 H73        26.6706   20.9001   -0.6514 H         1 UNK         0.0888 
     74 H74        26.3542   21.8271    0.8169 H         1 UNK         0.0888 
     75 H75        28.7175   21.2230   -1.4439 H         1 UNK         0.3017 
     76 H76        30.6924   21.9689   -1.9621 H         1 UNK         0.0873 
     77 H77        30.4786   23.9243    0.3834 H         1 UNK         0.0745 
     78 H78        31.9339   23.6018   -0.5172 H         1 UNK         0.0745 
     79 H79        29.3947   22.2661    2.0927 H         1 UNK         0.0705 
     80 H80        30.4537   21.2176    3.0027 H         1 UNK         0.0705 
     81 H81        32.5893   23.8838    1.9700 H         1 UNK         0.1334 
     82 H82        31.9088   26.3621    5.3843 H         1 UNK         0.1417 
     83 H83        29.3895   22.9719    4.6868 H         1 UNK         0.1562 
     84 H84        30.3215   25.7614    7.0538 H         1 UNK         0.0748 
     85 H85        29.9978   24.0534    7.1331 H         1 UNK         0.0748 
     86 H86        28.8044   27.4945    6.7390 H         1 UNK         0.0940 
     87 H87        27.0719   27.3408    6.7208 H         1 UNK         0.0940 
     88 H88        28.9397   27.4587    4.3112 H         1 UNK         0.0703 
     89 H89        26.6484   25.9907    4.3260 H         1 UNK         0.3081 
     90 H90        26.4299   24.9524    2.1299 H         1 UNK         0.0719 
     91 H91        23.9993   26.8099    2.3687 H         1 UNK         0.0809 
     92 H92        23.9105   25.1015    1.9451 H         1 UNK         0.0809 
     93 H93        24.5074   25.5873    3.5195 H         1 UNK         0.0809 
     94 H94        26.5424   25.2881   -0.0095 H         1 UNK         0.2990 
     95 H95        24.8486   25.8470   -2.1153 H         1 UNK         0.0690 
     96 H96        25.1115   27.6918   -3.7816 H         1 UNK         0.0788 
     97 H97        25.5940   28.7914   -2.4903 H         1 UNK         0.0788 
     98 H98        23.9766   28.1096   -2.5097 H         1 UNK         0.0788 
     99 H99        26.9080   25.3204   -2.6734 H         1 UNK         0.2993 
    100 H100       29.0338   26.0103   -3.8154 H         1 UNK         0.0949 
    101 H101       31.3609   26.6318   -3.1835 H         1 UNK         0.0767 
    102 H102       30.3589   28.0690   -3.2920 H         1 UNK         0.0767 
    103 H103       30.7835   27.4168   -1.7162 H         1 UNK         0.0767 
    104 H104       29.0053   24.9901   -1.1001 H         1 UNK         0.3013 
    105 H105       25.7359   28.8279    4.2588 H         1 UNK         0.3121 
    106 H106       26.3610   31.4535    5.2550 H         1 UNK         0.0774 
    107 H107       24.0922   30.4839    3.4290 H         1 UNK         0.0815 
    108 H108       24.1578   32.0445    4.2352 H         1 UNK         0.0815 
    109 H109       24.0350   30.5772    5.1907 H         1 UNK         0.0815 
    110 H110       26.6931   29.8938    2.0978 H         1 UNK         0.2987 
    111 H111       27.5630   32.4545    0.8153 H         1 UNK         0.0949 
    112 H112       25.8180   31.2987   -0.4561 H         1 UNK         0.0806 
    113 H113       26.6825   29.7705   -0.3554 H         1 UNK         0.0806 
    114 H114       27.3449   31.0947   -1.3052 H         1 UNK         0.0806 
    115 H115       28.4860   29.0500    1.4795 H         1 UNK         0.3010 
    116 H116       31.2351   29.3625    0.5850 H         1 UNK         0.0829 
    117 H117       31.4481   27.0388    1.3200 H         1 UNK         0.0813 
    118 H118       29.9228   27.1963    0.4620 H         1 UNK         0.0813 
    119 H119       29.9403   27.1103    2.2151 H         1 UNK         0.0813 
    120 H120       31.2224   31.4311    2.0312 H         1 UNK         0.3038 
    121 H121       31.6502   31.1132    4.8670 H         1 UNK         0.0769 
    122 H122       32.2724   33.4627    2.9943 H         1 UNK         0.0811 
    123 H123       32.2405   33.5355    4.7512 H         1 UNK         0.0811 
    124 H124       30.7603   33.2061    3.8664 H         1 UNK         0.0811 
    125 H125       33.7330   30.6268    2.1893 H         1 UNK         0.3204 
    126 H126       36.2130   31.5382    3.0340 H         1 UNK         0.0748 
    127 H127       37.1100   29.9386    1.3238 H         1 UNK         0.0771 
    128 H128       35.5503   29.1307    1.2511 H         1 UNK         0.0771 
    129 H129       35.7103   30.8061    0.7191 H         1 UNK         0.0771 
    130 H130       34.5719   28.6736    4.1981 H         1 UNK         0.2980 
    131 H131       36.9557   27.4432    5.3448 H         1 UNK         0.0545 
    132 H132       35.5919   30.0904    8.0548 H         1 UNK         0.3459 
    133 H133       35.1270   30.2083    6.3746 H         1 UNK         0.3459 
    134 H134       34.0217   26.7638    5.8238 H         1 UNK         0.0616 
    135 H135       35.3801   25.8262    6.3748 H         1 UNK         0.0616 
    136 H136       33.7027   25.9950    2.1332 H         1 UNK         0.0634 
    137 H137       33.3736   27.1090    3.4252 H         1 UNK         0.0634 
@<TRIPOS>BOND
     1    1    2 1    
     2    1   72 1    
     3    1   73 1    
     4    1   74 1    
     5    2    3 2    
     6    2    4 am   BACKBONE|DICT|INTERRES
     7    4    5 1    
     8    4   75 1    
     9    5    6 1    
    10    5   35 1    
    11    5   76 1    
    12    6    7 1    
    13    6   77 1    
    14    6   78 1    
    15    7    8 1    
    16    8    9 1    
    17    8   79 1    
    18    8   80 1    
    19    9   10 ar   
    20    9   14 ar   
    21   10   11 ar   
    22   10   81 1    
    23   11   12 ar   
    24   11   71 1    
    25   12   13 ar   
    26   12   82 1    
    27   13   14 ar   
    28   13   15 1    
    29   14   83 1    
    30   15   16 1    
    31   15   84 1    
    32   15   85 1    
    33   16   17 1    
    34   17   18 1    
    35   17   86 1    
    36   17   87 1    
    37   18   19 1    
    38   18   37 1    
    39   18   88 1    
    40   19   20 am   BACKBONE|DICT|INTERRES
    41   19   89 1    
    42   20   21 2    
    43   20   22 1    
    44   22   23 1    
    45   22   24 1    
    46   22   90 1    
    47   23   91 1    
    48   23   92 1    
    49   23   93 1    
    50   24   25 am   BACKBONE|DICT|INTERRES
    51   24   94 1    
    52   25   26 2    
    53   25   27 1    
    54   27   28 1    
    55   27   29 1    
    56   27   95 1    
    57   28   96 1    
    58   28   97 1    
    59   28   98 1    
    60   29   30 am   BACKBONE|DICT|INTERRES
    61   29   99 1    
    62   30   31 2    
    63   30   32 1    
    64   32   33 1    
    65   32   34 1    
    66   32  100 1    
    67   33  101 1    
    68   33  102 1    
    69   33  103 1    
    70   34   35 am   BACKBONE|DICT|INTERRES
    71   34  104 1    
    72   35   36 2    
    73   37   38 2    
    74   37   39 am   BACKBONE|DICT|INTERRES
    75   39   40 1    
    76   39  105 1    
    77   40   41 1    
    78   40   42 1    
    79   40  106 1    
    80   41  107 1    
    81   41  108 1    
    82   41  109 1    
    83   42   43 2    
    84   42   44 am   BACKBONE|DICT|INTERRES
    85   44   45 1    
    86   44  110 1    
    87   45   46 1    
    88   45   47 1    
    89   45  111 1    
    90   46  112 1    
    91   46  113 1    
    92   46  114 1    
    93   47   48 2    
    94   47   49 am   BACKBONE|DICT|INTERRES
    95   49   50 1    
    96   49  115 1    
    97   50   51 1    
    98   50   52 1    
    99   50  116 1    
   100   51  117 1    
   101   51  118 1    
   102   51  119 1    
   103   52   53 2    
   104   52   54 am   BACKBONE|DICT|INTERRES
   105   54   55 1    
   106   54  120 1    
   107   55   56 1    
   108   55   57 1    
   109   55  121 1    
   110   56  122 1    
   111   56  123 1    
   112   56  124 1    
   113   57   58 2    
   114   57   59 am   BACKBONE|DICT|INTERRES
   115   59   60 1    
   116   59  125 1    
   117   60   61 1    
   118   60   62 1    
   119   60  126 1    
   120   61  127 1    
   121   61  128 1    
   122   61  129 1    
   123   62   63 2    
   124   62   64 am   BACKBONE|DICT|INTERRES
   125   64   65 1    
   126   64  130 1    
   127   65   66 1    
   128   65   69 1    
   129   65  131 1    
   130   66   67 am   BACKBONE|DICT|INTERRES
   131   66   68 2    
   132   67  132 1    
   133   67  133 1    
   134   69   70 1    
   135   69  134 1    
   136   69  135 1    
   137   70   71 1    
   138   71  136 1    
   139   71  137 1    
@<TRIPOS>SUBSTRUCTURE
     1 UNK         1 GROUP             0       ****    0 ROOT    
