@<TRIPOS>MOLECULE
3R136
137   139    1
SMALL
USER_CHARGES


@<TRIPOS>ATOM
      1 CA         33.7937   21.4699   -2.3895 C.3       0 UNK        -0.1979 
      2 C          32.8054   22.3832   -1.6800 C.2       0 UNK         0.4864 
      3 O          33.0060   23.5990   -1.6497 O.2       0 UNK        -0.5359 
      4 N          31.7333   21.8135   -1.1124 N.am      1 UNK        -0.4318 
      5 CA         30.6686   22.5331   -0.4070 C.3       1 UNK         0.0824 
      6 C6         29.9523   21.6118    0.6159 C.3       12 UNK        -0.0944 
      7 S7         29.0388   22.5752    1.8661 S.3       12 UNK        -0.2672 
      8 C8         30.0372   22.2968    3.3676 C.3       12 UNK         0.0333 
      9 C9         29.6972   23.3086    4.4551 C.ar      12 UNK        -0.0807 
     10 C10        30.6897   24.1345    4.9917 C.ar      12 UNK        -0.0894 
     11 C11        30.3690   25.1012    5.9501 C.ar      12 UNK        -0.0804 
     12 C12        29.0407   25.2476    6.3662 C.ar      12 UNK        -0.0824 
     13 C13        28.0390   24.4227    5.8427 C.ar      12 UNK        -0.0762 
     14 C14        28.3822   23.4406    4.9078 C.ar      12 UNK        -0.0782 
     15 C15        26.5898   24.5709    6.2938 C.3       12 UNK         0.0230 
     16 S16        25.4372   24.6895    4.8823 S.3       12 UNK        -0.2608 
     17 C17        25.0750   26.4735    4.7721 C.3       12 UNK        -0.0989 
     18 CA         26.2950   27.4036    4.5471 C.3       5 UNK         0.0716 
     19 N          27.1698   26.9602    3.4549 N.am      5 UNK        -0.4135 
     20 C          28.3413   27.5376    3.1475 C.2       4 UNK         0.5031 
     21 O          28.8478   28.4318    3.8212 O.2       4 UNK        -0.5229 
     22 CA         29.0399   27.1075    1.8443 C.3       4 UNK         0.0329 
     23 CB         30.2474   26.2059    2.1293 C.3       4 UNK        -0.2001 
     24 N          28.1780   26.4553    0.8537 N.am      4 UNK        -0.4303 
     25 C          27.1089   27.0058    0.2601 C.2       3 UNK         0.5044 
     26 O          26.6259   28.0897    0.5956 O.2       3 UNK        -0.5152 
     27 CA         26.4827   26.2010   -0.8966 C.3       3 UNK         0.0319 
     28 CB         25.5560   27.0601   -1.7827 C.3       3 UNK        -0.2001 
     29 N          27.4859   25.4978   -1.7112 N.am      3 UNK        -0.4354 
     30 C          28.5034   26.0385   -2.4007 C.2       2 UNK         0.4964 
     31 O          28.7192   27.2491   -2.4756 O.2       2 UNK        -0.5047 
     32 CA         29.4605   25.0435   -3.0876 C.3       2 UNK         0.0288 
     33 CB         30.4749   25.7392   -4.0151 C.3       2 UNK        -0.2113 
     34 N          30.1975   24.2414   -2.1075 N.am      2 UNK        -0.4145 
     35 C          29.7061   23.2070   -1.4136 C.2       1 UNK         0.5006 
     36 O          28.5555   22.7873   -1.5611 O.2       1 UNK        -0.5103 
     37 C          25.8003   28.8558    4.3461 C.2       5 UNK         0.5055 
     38 O          25.6173   29.5706    5.3327 O.2       5 UNK        -0.5220 
     39 N          25.5898   29.2567    3.0827 N.am      6 UNK        -0.4450 
     40 CA         25.2332   30.6171    2.6838 C.3       6 UNK         0.0367 
     41 CB         24.1837   30.5657    1.5608 C.3       6 UNK        -0.1929 
     42 C          26.4836   31.3798    2.2265 C.2       6 UNK         0.5070 
     43 O          26.7157   32.4999    2.6832 O.2       6 UNK        -0.5237 
     44 N          27.2903   30.7557    1.3570 N.am      7 UNK        -0.4739 
     45 CA         28.5533   31.2853    0.8377 C.3       7 UNK         0.0276 
     46 CB         28.8551   30.6133   -0.5154 C.3       7 UNK        -0.1927 
     47 C          29.6941   31.1060    1.8570 C.2       7 UNK         0.5013 
     48 O          30.6718   30.4124    1.5728 O.2       7 UNK        -0.5193 
     49 N          29.5409   31.7380    3.0298 N.am      8 UNK        -0.4253 
     50 CA         30.3779   31.5928    4.2295 C.3       8 UNK         0.0242 
     51 CB         29.8438   32.5251    5.3282 C.3       8 UNK        -0.2000 
     52 C          31.8891   31.8073    4.0306 C.2       8 UNK         0.4948 
     53 O          32.6763   31.2664    4.8064 O.2       8 UNK        -0.5275 
     54 N          32.2804   32.5442    2.9813 N.am      9 UNK        -0.4246 
     55 CA         33.6683   32.6988    2.5357 C.3       9 UNK         0.0261 
     56 CB         33.7149   33.6800    1.3536 C.3       9 UNK        -0.1959 
     57 C          34.3505   31.3681    2.1582 C.2       9 UNK         0.5033 
     58 O          35.5681   31.2578    2.3103 O.2       9 UNK        -0.5390 
     59 N          33.5679   30.3724    1.7123 N.am      10 UNK        -0.4215 
     60 CA         34.0422   29.0199    1.4079 C.3       10 UNK         0.0240 
     61 CB         32.9744   28.2792    0.5868 C.3       10 UNK        -0.1982 
     62 C          34.4309   28.2052    2.6570 C.2       10 UNK         0.4970 
     63 O          35.1706   27.2305    2.5173 O.2       10 UNK        -0.4916 
     64 N          33.9511   28.6068    3.8430 N.am      11 UNK        -0.4279 
     65 CA         34.3067   27.9953    5.1342 C.3       11 UNK         0.1003 
     66 C          35.6923   28.4468    5.6831 C.2       11 UNK         0.5709 
     67 N          36.3760   29.4113    5.0757 N.am      11 UNK        -0.7358 
     68 O          36.1653   27.8988    6.6761 O.2       11 UNK        -0.4999 
     69 C69        33.1922   28.1855    6.1988 C.3       12 UNK        -0.0954 
     70 S70        31.5737   27.5621    5.6375 S.3       12 UNK        -0.2268 
     71 C71        31.4635   25.9845    6.5303 C.3       12 UNK         0.0203 
     72 H72        33.4942   20.4234   -2.3346 H         1 UNK         0.0888 
     73 H73        33.8712   21.7464   -3.4406 H         1 UNK         0.0888 
     74 H74        34.7810   21.5642   -1.9382 H         1 UNK         0.0888 
     75 H75        31.6042   20.8148   -1.1958 H         1 UNK         0.3017 
     76 H76        31.1429   23.3361    0.1631 H         1 UNK         0.0873 
     77 H77        30.6818   20.9841    1.1302 H         1 UNK         0.0745 
     78 H78        29.2670   20.9193    0.1233 H         1 UNK         0.0745 
     79 H79        29.8614   21.2866    3.7396 H         1 UNK         0.0705 
     80 H80        31.0955   22.3593    3.1091 H         1 UNK         0.0705 
     81 H81        31.7121   24.0381    4.6525 H         1 UNK         0.1334 
     82 H82        28.7911   26.0054    7.0963 H         1 UNK         0.1417 
     83 H83        27.6139   22.7978    4.4996 H         1 UNK         0.1562 
     84 H84        26.4635   25.4327    6.9507 H         1 UNK         0.0748 
     85 H85        26.3236   23.6942    6.8855 H         1 UNK         0.0748 
     86 H86        24.5477   26.7638    5.6834 H         1 UNK         0.0940 
     87 H87        24.3524   26.5953    3.9622 H         1 UNK         0.0940 
     88 H88        26.8996   27.3969    5.4562 H         1 UNK         0.0703 
     89 H89        26.8302   26.2045    2.8794 H         1 UNK         0.3081 
     90 H90        29.4156   28.0206    1.3813 H         1 UNK         0.0719 
     91 H91        29.9341   25.2581    2.5575 H         1 UNK         0.0809 
     92 H92        30.8152   25.9950    1.2232 H         1 UNK         0.0809 
     93 H93        30.9290   26.6755    2.8393 H         1 UNK         0.0809 
     94 H94        28.4771   25.5474    0.5309 H         1 UNK         0.2990 
     95 H95        25.8701   25.4281   -0.4303 H         1 UNK         0.0690 
     96 H96        25.1164   26.4704   -2.5870 H         1 UNK         0.0788 
     97 H97        26.0892   27.8983   -2.2327 H         1 UNK         0.0788 
     98 H98        24.7331   27.4761   -1.2000 H         1 UNK         0.0788 
     99 H99        27.4458   24.4827   -1.6837 H         1 UNK         0.2993 
    100 H100       28.8511   24.3772   -3.7024 H         1 UNK         0.0949 
    101 H101       29.9662   26.3349   -4.7743 H         1 UNK         0.0767 
    102 H102       31.1358   26.4083   -3.4622 H         1 UNK         0.0767 
    103 H103       31.0967   25.0120   -4.5380 H         1 UNK         0.0767 
    104 H104       31.1738   24.4784   -1.9609 H         1 UNK         0.3013 
    105 H105       25.8210   28.6205    2.3257 H         1 UNK         0.3121 
    106 H106       24.7979   31.1566    3.5278 H         1 UNK         0.0774 
    107 H107       23.9081   31.5709    1.2392 H         1 UNK         0.0815 
    108 H108       24.5492   30.0305    0.6832 H         1 UNK         0.0815 
    109 H109       23.2718   30.0717    1.8962 H         1 UNK         0.0815 
    110 H110       27.0395   29.8188    1.0475 H         1 UNK         0.2987 
    111 H111       28.4426   32.3570    0.6582 H         1 UNK         0.0949 
    112 H112       28.9716   29.5335   -0.4185 H         1 UNK         0.0806 
    113 H113       28.0576   30.7960   -1.2355 H         1 UNK         0.0806 
    114 H114       29.7777   31.0018   -0.9484 H         1 UNK         0.0806 
    115 H115       28.6764   32.2569    3.1471 H         1 UNK         0.3010 
    116 H116       30.2573   30.5632    4.5719 H         1 UNK         0.0829 
    117 H117       28.8070   32.2939    5.5741 H         1 UNK         0.0813 
    118 H118       30.4232   32.4199    6.2467 H         1 UNK         0.0813 
    119 H119       29.8939   33.5723    5.0274 H         1 UNK         0.0813 
    120 H120       31.5645   32.9475    2.3950 H         1 UNK         0.3038 
    121 H121       34.2332   33.1305    3.3646 H         1 UNK         0.0769 
    122 H122       33.1429   33.3122    0.5007 H         1 UNK         0.0811 
    123 H123       34.7407   33.8344    1.0158 H         1 UNK         0.0811 
    124 H124       33.3172   34.6564    1.6309 H         1 UNK         0.0811 
    125 H125       32.5621   30.5221    1.6422 H         1 UNK         0.3204 
    126 H126       34.9388   29.1092    0.7908 H         1 UNK         0.0748 
    127 H127       33.3070   27.2749    0.3204 H         1 UNK         0.0771 
    128 H128       32.0437   28.1790    1.1439 H         1 UNK         0.0771 
    129 H129       32.7508   28.8050   -0.3416 H         1 UNK         0.0771 
    130 H130       33.3714   29.4352    3.8986 H         1 UNK         0.2980 
    131 H131       34.3994   26.9199    4.9710 H         1 UNK         0.0545 
    132 H132       36.0059   29.8701    4.2560 H         1 UNK         0.3459 
    133 H133       37.2733   29.6845    5.4437 H         1 UNK         0.3459 
    134 H134       33.0797   29.2411    6.4487 H         1 UNK         0.0616 
    135 H135       33.4584   27.6847    7.1315 H         1 UNK         0.0616 
    136 H136       32.4246   25.4705    6.4777 H         1 UNK         0.0634 
    137 H137       31.2722   26.1794    7.5865 H         1 UNK         0.0634 
@<TRIPOS>BOND
     1    1    2 1    
     2    1   72 1    
     3    1   73 1    
     4    1   74 1    
     5    2    3 2    
     6    2    4 am   BACKBONE|DICT|INTERRES
     7    4    5 1    
     8    4   75 1    
     9    5    6 1    
    10    5   35 1    
    11    5   76 1    
    12    6    7 1    
    13    6   77 1    
    14    6   78 1    
    15    7    8 1    
    16    8    9 1    
    17    8   79 1    
    18    8   80 1    
    19    9   10 ar   
    20    9   14 ar   
    21   10   11 ar   
    22   10   81 1    
    23   11   12 ar   
    24   11   71 1    
    25   12   13 ar   
    26   12   82 1    
    27   13   14 ar   
    28   13   15 1    
    29   14   83 1    
    30   15   16 1    
    31   15   84 1    
    32   15   85 1    
    33   16   17 1    
    34   17   18 1    
    35   17   86 1    
    36   17   87 1    
    37   18   19 1    
    38   18   37 1    
    39   18   88 1    
    40   19   20 am   BACKBONE|DICT|INTERRES
    41   19   89 1    
    42   20   21 2    
    43   20   22 1    
    44   22   23 1    
    45   22   24 1    
    46   22   90 1    
    47   23   91 1    
    48   23   92 1    
    49   23   93 1    
    50   24   25 am   BACKBONE|DICT|INTERRES
    51   24   94 1    
    52   25   26 2    
    53   25   27 1    
    54   27   28 1    
    55   27   29 1    
    56   27   95 1    
    57   28   96 1    
    58   28   97 1    
    59   28   98 1    
    60   29   30 am   BACKBONE|DICT|INTERRES
    61   29   99 1    
    62   30   31 2    
    63   30   32 1    
    64   32   33 1    
    65   32   34 1    
    66   32  100 1    
    67   33  101 1    
    68   33  102 1    
    69   33  103 1    
    70   34   35 am   BACKBONE|DICT|INTERRES
    71   34  104 1    
    72   35   36 2    
    73   37   38 2    
    74   37   39 am   BACKBONE|DICT|INTERRES
    75   39   40 1    
    76   39  105 1    
    77   40   41 1    
    78   40   42 1    
    79   40  106 1    
    80   41  107 1    
    81   41  108 1    
    82   41  109 1    
    83   42   43 2    
    84   42   44 am   BACKBONE|DICT|INTERRES
    85   44   45 1    
    86   44  110 1    
    87   45   46 1    
    88   45   47 1    
    89   45  111 1    
    90   46  112 1    
    91   46  113 1    
    92   46  114 1    
    93   47   48 2    
    94   47   49 am   BACKBONE|DICT|INTERRES
    95   49   50 1    
    96   49  115 1    
    97   50   51 1    
    98   50   52 1    
    99   50  116 1    
   100   51  117 1    
   101   51  118 1    
   102   51  119 1    
   103   52   53 2    
   104   52   54 am   BACKBONE|DICT|INTERRES
   105   54   55 1    
   106   54  120 1    
   107   55   56 1    
   108   55   57 1    
   109   55  121 1    
   110   56  122 1    
   111   56  123 1    
   112   56  124 1    
   113   57   58 2    
   114   57   59 am   BACKBONE|DICT|INTERRES
   115   59   60 1    
   116   59  125 1    
   117   60   61 1    
   118   60   62 1    
   119   60  126 1    
   120   61  127 1    
   121   61  128 1    
   122   61  129 1    
   123   62   63 2    
   124   62   64 am   BACKBONE|DICT|INTERRES
   125   64   65 1    
   126   64  130 1    
   127   65   66 1    
   128   65   69 1    
   129   65  131 1    
   130   66   67 am   BACKBONE|DICT|INTERRES
   131   66   68 2    
   132   67  132 1    
   133   67  133 1    
   134   69   70 1    
   135   69  134 1    
   136   69  135 1    
   137   70   71 1    
   138   71  136 1    
   139   71  137 1    
@<TRIPOS>SUBSTRUCTURE
     1 UNK         1 GROUP             0       ****    0 ROOT    
