@<TRIPOS>MOLECULE
3R136
137   139    1
SMALL
USER_CHARGES


@<TRIPOS>ATOM
      1 CA         27.8174   19.9462    2.1571 C.3       0 UNK        -0.1979 
      2 C          28.5347   21.0201    1.3536 C.2       0 UNK         0.4864 
      3 O          27.9354   22.0516    1.0470 O.2       0 UNK        -0.5359 
      4 N          29.8105   20.7835    1.0115 N.am      1 UNK        -0.4318 
      5 CA         30.6872   21.6863    0.2513 C.3       1 UNK         0.0824 
      6 C6         31.1239   22.9307    1.0758 C.3       12 UNK        -0.0944 
      7 S7         32.2842   22.4584    2.4047 S.3       12 UNK        -0.2672 
      8 C8         31.2066   22.2895    3.8727 C.3       12 UNK         0.0333 
      9 C9         30.7719   23.6062    4.5145 C.ar      12 UNK        -0.0807 
     10 C10        31.6011   24.7334    4.5116 C.ar      12 UNK        -0.0894 
     11 C11        31.1854   25.9261    5.1093 C.ar      12 UNK        -0.0804 
     12 C12        29.9584   25.9745    5.7737 C.ar      12 UNK        -0.0824 
     13 C13        29.1184   24.8586    5.7871 C.ar      12 UNK        -0.0762 
     14 C14        29.5292   23.6801    5.1541 C.ar      12 UNK        -0.0782 
     15 C15        27.7646   24.9260    6.4778 C.3       12 UNK         0.0230 
     16 S16        26.4631   25.5200    5.3499 S.3       12 UNK        -0.2608 
     17 C17        26.6800   27.3336    5.4093 C.3       12 UNK        -0.0989 
     18 CA         27.4090   27.9281    4.1742 C.3       5 UNK         0.0716 
     19 N          26.7067   27.6736    2.9193 N.am      5 UNK        -0.4135 
     20 C          27.0833   26.7956    1.9870 C.2       4 UNK         0.5031 
     21 O          28.0396   26.0258    2.0965 O.2       4 UNK        -0.5229 
     22 CA         26.2660   26.7976    0.6926 C.3       4 UNK         0.0329 
     23 CB         26.8244   27.8236   -0.3103 C.3       4 UNK        -0.2001 
     24 N          26.3344   25.4622    0.1151 N.am      4 UNK        -0.4303 
     25 C          25.3800   24.8658   -0.6060 C.2       3 UNK         0.5044 
     26 O          24.3098   25.4002   -0.9044 O.2       3 UNK        -0.5152 
     27 CA         25.6861   23.4267   -1.0620 C.3       3 UNK         0.0319 
     28 CB         24.6919   22.8867   -2.1133 C.3       3 UNK        -0.2001 
     29 N          27.0785   23.2734   -1.5028 N.am      3 UNK        -0.4354 
     30 C          27.6655   23.8528   -2.5641 C.2       2 UNK         0.4964 
     31 O          27.0622   24.5576   -3.3748 O.2       2 UNK        -0.5047 
     32 CA         29.1782   23.6217   -2.7604 C.3       2 UNK         0.0288 
     33 CB         29.8717   24.8554   -3.3682 C.3       2 UNK        -0.2113 
     34 N          29.8522   23.2440   -1.5106 N.am      2 UNK        -0.4145 
     35 C          30.0768   21.9738   -1.1411 C.2       1 UNK         0.5006 
     36 O          29.7963   21.0095   -1.8580 O.2       1 UNK        -0.5103 
     37 C          27.5240   29.4543    4.3061 C.2       5 UNK         0.5055 
     38 O          26.5936   30.1660    3.9153 O.2       5 UNK        -0.5220 
     39 N          28.6383   29.9317    4.8654 N.am      6 UNK        -0.4450 
     40 CA         28.9465   31.3421    5.0776 C.3       6 UNK         0.0367 
     41 CB         29.3646   31.9917    3.7429 C.3       6 UNK        -0.1929 
     42 C          30.0699   31.4474    6.1166 C.2       6 UNK         0.5070 
     43 O          30.7330   30.4480    6.4060 O.2       6 UNK        -0.5237 
     44 N          30.2687   32.6576    6.6548 N.am      7 UNK        -0.4739 
     45 CA         31.3966   32.9842    7.5356 C.3       7 UNK         0.0276 
     46 CB         31.0454   34.2207    8.3792 C.3       7 UNK        -0.1927 
     47 C          32.6986   33.2193    6.7472 C.2       7 UNK         0.5013 
     48 O          33.7806   32.9306    7.2602 O.2       7 UNK        -0.5193 
     49 N          32.5645   33.7354    5.5189 N.am      8 UNK        -0.4253 
     50 CA         33.6406   33.8908    4.5410 C.3       8 UNK         0.0242 
     51 CB         33.3222   35.1079    3.6548 C.3       8 UNK        -0.2000 
     52 C          33.7607   32.6224    3.6826 C.2       8 UNK         0.4948 
     53 O          32.8423   31.7994    3.6655 O.2       8 UNK        -0.5275 
     54 N          34.8606   32.5070    2.9270 N.am      9 UNK        -0.4246 
     55 CA         35.1618   31.3957    2.0125 C.3       9 UNK         0.0261 
     56 CB         36.6701   31.4074    1.6984 C.3       9 UNK        -0.1959 
     57 C          34.2902   31.3813    0.7333 C.2       9 UNK         0.5033 
     58 O          34.8156   31.2418   -0.3726 O.2       9 UNK        -0.5390 
     59 N          32.9720   31.5161    0.9103 N.am      10 UNK        -0.4215 
     60 CA         31.9404   31.4780   -0.1302 C.3       10 UNK         0.0240 
     61 CB         30.9936   32.6738    0.0790 C.3       10 UNK        -0.1982 
     62 C          31.1624   30.1471   -0.1239 C.2       10 UNK         0.4970 
     63 O          30.1752   30.0226   -0.8492 O.2       10 UNK        -0.4916 
     64 N          31.6028   29.1864    0.6980 N.am      11 UNK        -0.4279 
     65 CA         30.9717   27.8756    0.9135 C.3       11 UNK         0.1003 
     66 C          31.0620   26.8857   -0.2845 C.2       11 UNK         0.5709 
     67 N          31.8522   27.1583   -1.3162 N.am      11 UNK        -0.7358 
     68 O          30.4084   25.8459   -0.2755 O.2       11 UNK        -0.4999 
     69 C69        31.5053   27.2041    2.2032 C.3       12 UNK        -0.0954 
     70 S70        31.3988   28.2757    3.6776 S.3       12 UNK        -0.2268 
     71 C71        32.0377   27.1783    4.9833 C.3       12 UNK         0.0203 
     72 H72        26.9487   19.5851    1.6073 H         1 UNK         0.0888 
     73 H73        28.4636   19.0948    2.3699 H         1 UNK         0.0888 
     74 H74        27.4739   20.3572    3.1061 H         1 UNK         0.0888 
     75 H75        30.2290   19.8994    1.2638 H         1 UNK         0.3017 
     76 H76        31.5887   21.1117    0.0317 H         1 UNK         0.0873 
     77 H77        31.6665   23.6373    0.4466 H         1 UNK         0.0745 
     78 H78        30.2698   23.4720    1.4884 H         1 UNK         0.0745 
     79 H79        30.3354   21.6914    3.6070 H         1 UNK         0.0705 
     80 H80        31.7497   21.7158    4.6246 H         1 UNK         0.0705 
     81 H81        32.5602   24.6992    4.0146 H         1 UNK         0.1334 
     82 H82        29.6428   26.8937    6.2468 H         1 UNK         0.1417 
     83 H83        28.8776   22.8169    5.1630 H         1 UNK         0.1562 
     84 H84        27.8155   25.5591    7.3649 H         1 UNK         0.0748 
     85 H85        27.4856   23.9337    6.8356 H         1 UNK         0.0748 
     86 H86        27.2066   27.6000    6.3273 H         1 UNK         0.0940 
     87 H87        25.6851   27.7736    5.5050 H         1 UNK         0.0940 
     88 H88        28.4184   27.5185    4.1150 H         1 UNK         0.0703 
     89 H89        25.9565   28.3240    2.7259 H         1 UNK         0.3081 
     90 H90        25.2289   27.0418    0.9333 H         1 UNK         0.0719 
     91 H91        27.8579   27.5999   -0.5793 H         1 UNK         0.0809 
     92 H92        26.2376   27.8391   -1.2288 H         1 UNK         0.0809 
     93 H93        26.8061   28.8321    0.1049 H         1 UNK         0.0809 
     94 H94        27.1643   24.9417    0.3761 H         1 UNK         0.2990 
     95 H95        25.5830   22.8040   -0.1723 H         1 UNK         0.0690 
     96 H96        24.9417   21.8678   -2.4088 H         1 UNK         0.0788 
     97 H97        24.6721   23.5029   -3.0124 H         1 UNK         0.0788 
     98 H98        23.6773   22.8681   -1.7137 H         1 UNK         0.0788 
     99 H99        27.6604   22.7450   -0.8597 H         1 UNK         0.2993 
    100 H100       29.2733   22.8137   -3.4888 H         1 UNK         0.0949 
    101 H101       29.6616   25.7589   -2.7961 H         1 UNK         0.0767 
    102 H102       30.9525   24.7237   -3.4169 H         1 UNK         0.0767 
    103 H103       29.5229   25.0342   -4.3861 H         1 UNK         0.0767 
    104 H104       30.0750   24.0098   -0.8786 H         1 UNK         0.3013 
    105 H105       29.3718   29.3090    5.1859 H         1 UNK         0.3121 
    106 H106       28.0632   31.8463    5.4753 H         1 UNK         0.0774 
    107 H107       29.6555   33.0337    3.8769 H         1 UNK         0.0815 
    108 H108       28.5500   31.9780    3.0188 H         1 UNK         0.0815 
    109 H109       30.2119   31.4688    3.2980 H         1 UNK         0.0815 
    110 H110       29.6545   33.4173    6.3963 H         1 UNK         0.2987 
    111 H111       31.5695   32.1466    8.2157 H         1 UNK         0.0949 
    112 H112       30.1595   34.0456    8.9898 H         1 UNK         0.0806 
    113 H113       31.8609   34.4718    9.0591 H         1 UNK         0.0806 
    114 H114       30.8583   35.0974    7.7578 H         1 UNK         0.0806 
    115 H115       31.6282   33.8776    5.1730 H         1 UNK         0.3010 
    116 H116       34.5889   34.0591    5.0563 H         1 UNK         0.0829 
    117 H117       34.1222   35.2967    2.9379 H         1 UNK         0.0813 
    118 H118       32.4026   34.9650    3.0853 H         1 UNK         0.0813 
    119 H119       33.2082   36.0129    4.2521 H         1 UNK         0.0813 
    120 H120       35.5458   33.2484    2.9622 H         1 UNK         0.3038 
    121 H121       34.9469   30.4639    2.5404 H         1 UNK         0.0769 
    122 H122       36.9624   32.3090    1.1587 H         1 UNK         0.0811 
    123 H123       36.9496   30.5524    1.0810 H         1 UNK         0.0811 
    124 H124       37.2668   31.3514    2.6090 H         1 UNK         0.0811 
    125 H125       32.6528   31.6115    1.8750 H         1 UNK         0.3204 
    126 H126       32.3994   31.5749   -1.1161 H         1 UNK         0.0748 
    127 H127       30.2368   32.7197   -0.7052 H         1 UNK         0.0771 
    128 H128       30.4714   32.6134    1.0341 H         1 UNK         0.0771 
    129 H129       31.5384   33.6178    0.0553 H         1 UNK         0.0771 
    130 H130       32.4158   29.3741    1.2636 H         1 UNK         0.2980 
    131 H131       29.9064   28.0621    1.0617 H         1 UNK         0.0545 
    132 H132       32.3923   28.0076   -1.3355 H         1 UNK         0.3459 
    133 H133       31.9043   26.5083   -2.0827 H         1 UNK         0.3459 
    134 H134       32.5437   26.8921    2.0776 H         1 UNK         0.0616 
    135 H135       30.9269   26.2994    2.3962 H         1 UNK         0.0616 
    136 H136       33.0756   26.9230    4.7644 H         1 UNK         0.0634 
    137 H137       32.0441   27.7203    5.9302 H         1 UNK         0.0634 
@<TRIPOS>BOND
     1    1    2 1    
     2    1   72 1    
     3    1   73 1    
     4    1   74 1    
     5    2    3 2    
     6    2    4 am   BACKBONE|DICT|INTERRES
     7    4    5 1    
     8    4   75 1    
     9    5    6 1    
    10    5   35 1    
    11    5   76 1    
    12    6    7 1    
    13    6   77 1    
    14    6   78 1    
    15    7    8 1    
    16    8    9 1    
    17    8   79 1    
    18    8   80 1    
    19    9   10 ar   
    20    9   14 ar   
    21   10   11 ar   
    22   10   81 1    
    23   11   12 ar   
    24   11   71 1    
    25   12   13 ar   
    26   12   82 1    
    27   13   14 ar   
    28   13   15 1    
    29   14   83 1    
    30   15   16 1    
    31   15   84 1    
    32   15   85 1    
    33   16   17 1    
    34   17   18 1    
    35   17   86 1    
    36   17   87 1    
    37   18   19 1    
    38   18   37 1    
    39   18   88 1    
    40   19   20 am   BACKBONE|DICT|INTERRES
    41   19   89 1    
    42   20   21 2    
    43   20   22 1    
    44   22   23 1    
    45   22   24 1    
    46   22   90 1    
    47   23   91 1    
    48   23   92 1    
    49   23   93 1    
    50   24   25 am   BACKBONE|DICT|INTERRES
    51   24   94 1    
    52   25   26 2    
    53   25   27 1    
    54   27   28 1    
    55   27   29 1    
    56   27   95 1    
    57   28   96 1    
    58   28   97 1    
    59   28   98 1    
    60   29   30 am   BACKBONE|DICT|INTERRES
    61   29   99 1    
    62   30   31 2    
    63   30   32 1    
    64   32   33 1    
    65   32   34 1    
    66   32  100 1    
    67   33  101 1    
    68   33  102 1    
    69   33  103 1    
    70   34   35 am   BACKBONE|DICT|INTERRES
    71   34  104 1    
    72   35   36 2    
    73   37   38 2    
    74   37   39 am   BACKBONE|DICT|INTERRES
    75   39   40 1    
    76   39  105 1    
    77   40   41 1    
    78   40   42 1    
    79   40  106 1    
    80   41  107 1    
    81   41  108 1    
    82   41  109 1    
    83   42   43 2    
    84   42   44 am   BACKBONE|DICT|INTERRES
    85   44   45 1    
    86   44  110 1    
    87   45   46 1    
    88   45   47 1    
    89   45  111 1    
    90   46  112 1    
    91   46  113 1    
    92   46  114 1    
    93   47   48 2    
    94   47   49 am   BACKBONE|DICT|INTERRES
    95   49   50 1    
    96   49  115 1    
    97   50   51 1    
    98   50   52 1    
    99   50  116 1    
   100   51  117 1    
   101   51  118 1    
   102   51  119 1    
   103   52   53 2    
   104   52   54 am   BACKBONE|DICT|INTERRES
   105   54   55 1    
   106   54  120 1    
   107   55   56 1    
   108   55   57 1    
   109   55  121 1    
   110   56  122 1    
   111   56  123 1    
   112   56  124 1    
   113   57   58 2    
   114   57   59 am   BACKBONE|DICT|INTERRES
   115   59   60 1    
   116   59  125 1    
   117   60   61 1    
   118   60   62 1    
   119   60  126 1    
   120   61  127 1    
   121   61  128 1    
   122   61  129 1    
   123   62   63 2    
   124   62   64 am   BACKBONE|DICT|INTERRES
   125   64   65 1    
   126   64  130 1    
   127   65   66 1    
   128   65   69 1    
   129   65  131 1    
   130   66   67 am   BACKBONE|DICT|INTERRES
   131   66   68 2    
   132   67  132 1    
   133   67  133 1    
   134   69   70 1    
   135   69  134 1    
   136   69  135 1    
   137   70   71 1    
   138   71  136 1    
   139   71  137 1    
@<TRIPOS>SUBSTRUCTURE
     1 UNK         1 GROUP             0       ****    0 ROOT    
