@<TRIPOS>MOLECULE
3R136
137   139    1
SMALL
USER_CHARGES


@<TRIPOS>ATOM
      1 CA         29.9966   19.3399   -0.7986 C.3       0 UNK        -0.1979 
      2 C          29.8411   20.3687   -1.9091 C.2       0 UNK         0.4864 
      3 O          29.6588   19.9950   -3.0692 O.2       0 UNK        -0.5359 
      4 N          29.9200   21.6591   -1.5630 N.am      1 UNK        -0.4318 
      5 CA         29.7103   22.7881   -2.4731 C.3       1 UNK         0.0824 
      6 C6         30.4252   24.0714   -1.9679 C.3       12 UNK        -0.0944 
      7 S7         29.9569   24.5930   -0.2792 S.3       12 UNK        -0.2672 
      8 C8         31.4533   24.1371    0.6539 C.3       12 UNK         0.0333 
      9 C9         31.3063   24.3724    2.1528 C.ar      12 UNK        -0.0807 
     10 C10        32.2346   25.1665    2.8354 C.ar      12 UNK        -0.0894 
     11 C11        32.1481   25.3273    4.2218 C.ar      12 UNK        -0.0804 
     12 C12        31.1094   24.7081    4.9246 C.ar      12 UNK        -0.0824 
     13 C13        30.1744   23.9125    4.2552 C.ar      12 UNK        -0.0762 
     14 C14        30.2810   23.7464    2.8708 C.ar      12 UNK        -0.0782 
     15 C15        29.0826   23.1863    5.0311 C.3       12 UNK         0.0230 
     16 S16        27.4253   23.8747    4.7202 S.3       12 UNK        -0.2608 
     17 C17        27.5261   25.5009    5.5420 C.3       12 UNK        -0.0989 
     18 CA         27.7063   26.6538    4.5260 C.3       5 UNK         0.0716 
     19 N          26.6055   26.7127    3.5569 N.am      5 UNK        -0.4135 
     20 C          26.5523   27.5402    2.5063 C.2       4 UNK         0.5031 
     21 O          27.4359   28.3527    2.2230 O.2       4 UNK        -0.5229 
     22 CA         25.2781   27.4816    1.6484 C.3       4 UNK         0.0329 
     23 CB         24.2814   28.5630    2.0963 C.3       4 UNK        -0.2001 
     24 N          25.5970   27.6772    0.2336 N.am      4 UNK        -0.4303 
     25 C          26.2174   26.7654   -0.5248 C.2       3 UNK         0.5044 
     26 O          26.4729   25.6209   -0.1444 O.2       3 UNK        -0.5152 
     27 CA         26.6431   27.2341   -1.9278 C.3       3 UNK         0.0319 
     28 CB         27.8957   28.1232   -1.8446 C.3       3 UNK        -0.2001 
     29 N          26.9341   26.1092   -2.8160 N.am      3 UNK        -0.4354 
     30 C          26.0181   25.3172   -3.3895 C.2       2 UNK         0.4964 
     31 O          24.8031   25.5029   -3.3060 O.2       2 UNK        -0.5047 
     32 CA         26.5422   24.1251   -4.2140 C.3       2 UNK         0.0288 
     33 CB         26.5084   24.4546   -5.7159 C.3       2 UNK        -0.2113 
     34 N          27.9030   23.7195   -3.8427 N.am      2 UNK        -0.4145 
     35 C          28.2060   23.0198   -2.7396 C.2       1 UNK         0.5006 
     36 O          27.3583   22.5842   -1.9549 O.2       1 UNK        -0.5103 
     37 C          27.8895   28.0025    5.2525 C.2       5 UNK         0.5055 
     38 O          26.9230   28.7532    5.4133 O.2       5 UNK        -0.5220 
     39 N          29.1361   28.2924    5.6471 N.am      6 UNK        -0.4450 
     40 CA         29.6473   29.5814    6.1300 C.3       6 UNK         0.0367 
     41 CB         28.8499   30.1625    7.3153 C.3       6 UNK        -0.1929 
     42 C          29.8124   30.5854    4.9817 C.2       6 UNK         0.5070 
     43 O          30.9356   31.0164    4.7220 O.2       6 UNK        -0.5237 
     44 N          28.7125   30.8963    4.2838 N.am      7 UNK        -0.4739 
     45 CA         28.6565   31.8237    3.1484 C.3       7 UNK         0.0276 
     46 CB         27.1936   31.9930    2.7082 C.3       7 UNK        -0.1927 
     47 C          29.5338   31.4114    1.9518 C.2       7 UNK         0.5013 
     48 O          30.0381   32.2889    1.2508 O.2       7 UNK        -0.5193 
     49 N          29.7069   30.0964    1.7560 N.am      8 UNK        -0.4253 
     50 CA         30.5014   29.4652    0.6999 C.3       8 UNK         0.0242 
     51 CB         30.4837   27.9410    0.9030 C.3       8 UNK        -0.2000 
     52 C          31.9581   29.9455    0.5959 C.2       8 UNK         0.4948 
     53 O          32.4583   30.0818   -0.5220 O.2       8 UNK        -0.5275 
     54 N          32.6180   30.1611    1.7423 N.am      9 UNK        -0.4246 
     55 CA         34.0511   30.4672    1.8010 C.3       9 UNK         0.0261 
     56 CB         34.8418   29.1447    1.8804 C.3       9 UNK        -0.1959 
     57 C          34.4408   31.4249    2.9390 C.2       9 UNK         0.5033 
     58 O          35.6395   31.6087    3.1569 O.2       9 UNK        -0.5390 
     59 N          33.4592   31.9978    3.6572 N.am      10 UNK        -0.4215 
     60 CA         33.6189   32.7439    4.9164 C.3       10 UNK         0.0240 
     61 CB         34.3715   34.0748    4.6977 C.3       10 UNK        -0.1982 
     62 C          34.2505   31.8459    5.9989 C.2       10 UNK         0.4970 
     63 O          35.2704   32.2060    6.5903 O.2       10 UNK        -0.4916 
     64 N          33.6564   30.6558    6.1627 N.am      11 UNK        -0.4279 
     65 CA         34.1782   29.5247    6.9446 C.3       11 UNK         0.1003 
     66 C          34.4429   29.8659    8.4375 C.2       11 UNK         0.5709 
     67 N          35.5197   29.3479    9.0130 N.am      11 UNK        -0.7358 
     68 O          33.6552   30.5521    9.0866 O.2       11 UNK        -0.4999 
     69 C69        33.2670   28.2709    6.8375 C.3       12 UNK        -0.0954 
     70 S70        32.7250   27.8703    5.1337 S.3       12 UNK        -0.2268 
     71 C71        33.2043   26.1246    4.9725 C.3       12 UNK         0.0203 
     72 H72        30.1705   19.8085    0.1700 H         1 UNK         0.0888 
     73 H73        29.0963   18.7306   -0.7236 H         1 UNK         0.0888 
     74 H74        30.8380   18.6811   -1.0121 H         1 UNK         0.0888 
     75 H75        30.0123   21.9107   -0.5900 H         1 UNK         0.3017 
     76 H76        30.1617   22.5252   -3.4327 H         1 UNK         0.0873 
     77 H77        31.5046   23.9156   -2.0038 H         1 UNK         0.0745 
     78 H78        30.2403   24.9081   -2.6437 H         1 UNK         0.0745 
     79 H79        31.6809   23.0838    0.4854 H         1 UNK         0.0705 
     80 H80        32.2966   24.7045    0.2570 H         1 UNK         0.0705 
     81 H81        33.0419   25.6403    2.2936 H         1 UNK         0.1334 
     82 H82        31.0474   24.8242    5.9982 H         1 UNK         0.1417 
     83 H83        29.5669   23.1215    2.3516 H         1 UNK         0.1562 
     84 H84        29.2865   23.2009    6.1030 H         1 UNK         0.0748 
     85 H85        29.0821   22.1348    4.7402 H         1 UNK         0.0748 
     86 H86        28.3446   25.4858    6.2642 H         1 UNK         0.0940 
     87 H87        26.6148   25.6454    6.1261 H         1 UNK         0.0940 
     88 H88        28.6162   26.4653    3.9509 H         1 UNK         0.0703 
     89 H89        25.8339   26.0859    3.7289 H         1 UNK         0.3081 
     90 H90        24.8099   26.5020    1.7683 H         1 UNK         0.0719 
     91 H91        24.6972   29.5656    1.9875 H         1 UNK         0.0809 
     92 H92        23.3580   28.5168    1.5187 H         1 UNK         0.0809 
     93 H93        24.0137   28.4359    3.1462 H         1 UNK         0.0809 
     94 H94        25.4620   28.6075   -0.1340 H         1 UNK         0.2990 
     95 H95        25.8256   27.8169   -2.3579 H         1 UNK         0.0690 
     96 H96        28.1535   28.5366   -2.8198 H         1 UNK         0.0788 
     97 H97        28.7584   27.5645   -1.4804 H         1 UNK         0.0788 
     98 H98        27.7425   28.9649   -1.1677 H         1 UNK         0.0788 
     99 H99        27.9043   25.8503   -2.9030 H         1 UNK         0.2993 
    100 H100       25.8675   23.2848   -4.0341 H         1 UNK         0.0949 
    101 H101       25.5014   24.7311   -6.0319 H         1 UNK         0.0767 
    102 H102       27.1674   25.2880   -5.9628 H         1 UNK         0.0767 
    103 H103       26.8099   23.5967   -6.3175 H         1 UNK         0.0767 
    104 H104       28.6480   24.0240   -4.4535 H         1 UNK         0.3013 
    105 H105       29.8571   27.6100    5.4535 H         1 UNK         0.3121 
    106 H106       30.6456   29.3822    6.5089 H         1 UNK         0.0774 
    107 H107       29.3684   31.0237    7.7383 H         1 UNK         0.0815 
    108 H108       27.8553   30.5024    7.0271 H         1 UNK         0.0815 
    109 H109       28.7364   29.4291    8.1135 H         1 UNK         0.0815 
    110 H110       27.8489   30.4323    4.5458 H         1 UNK         0.2987 
    111 H111       29.0245   32.7903    3.4990 H         1 UNK         0.0949 
    112 H112       26.7629   31.0482    2.3745 H         1 UNK         0.0806 
    113 H113       26.5755   32.3758    3.5203 H         1 UNK         0.0806 
    114 H114       27.1134   32.6988    1.8802 H         1 UNK         0.0806 
    115 H115       29.1334   29.4694    2.3113 H         1 UNK         0.3010 
    116 H116       30.0145   29.6946   -0.2494 H         1 UNK         0.0829 
    117 H117       29.4758   27.5349    0.8263 H         1 UNK         0.0813 
    118 H118       31.0875   27.4370    0.1471 H         1 UNK         0.0813 
    119 H119       30.8806   27.6575    1.8785 H         1 UNK         0.0813 
    120 H120       32.1368   30.0037    2.6178 H         1 UNK         0.3038 
    121 H121       34.3468   30.9843    0.8856 H         1 UNK         0.0769 
    122 H122       34.6186   28.4955    1.0338 H         1 UNK         0.0811 
    123 H123       34.6114   28.5950    2.7934 H         1 UNK         0.0811 
    124 H124       35.9177   29.3235    1.8695 H         1 UNK         0.0811 
    125 H125       32.4978   31.7831    3.4231 H         1 UNK         0.3204 
    126 H126       32.6160   32.9932    5.2659 H         1 UNK         0.0748 
    127 H127       33.8896   34.6797    3.9298 H         1 UNK         0.0771 
    128 H128       34.3866   34.6656    5.6143 H         1 UNK         0.0771 
    129 H129       35.4081   33.9173    4.3989 H         1 UNK         0.0771 
    130 H130       32.8068   30.4767    5.6424 H         1 UNK         0.2980 
    131 H131       35.1370   29.2717    6.4878 H         1 UNK         0.0545 
    132 H132       35.6968   29.5449    9.9856 H         1 UNK         0.3459 
    133 H133       36.1643   28.7723    8.4939 H         1 UNK         0.3459 
    134 H134       33.7950   27.4155    7.2610 H         1 UNK         0.0616 
    135 H135       32.3757   28.3892    7.4542 H         1 UNK         0.0616 
    136 H136       33.3564   25.6735    5.9536 H         1 UNK         0.0634 
    137 H137       34.1651   26.0666    4.4588 H         1 UNK         0.0634 
@<TRIPOS>BOND
     1    1    2 1    
     2    1   72 1    
     3    1   73 1    
     4    1   74 1    
     5    2    3 2    
     6    2    4 am   BACKBONE|DICT|INTERRES
     7    4    5 1    
     8    4   75 1    
     9    5    6 1    
    10    5   35 1    
    11    5   76 1    
    12    6    7 1    
    13    6   77 1    
    14    6   78 1    
    15    7    8 1    
    16    8    9 1    
    17    8   79 1    
    18    8   80 1    
    19    9   10 ar   
    20    9   14 ar   
    21   10   11 ar   
    22   10   81 1    
    23   11   12 ar   
    24   11   71 1    
    25   12   13 ar   
    26   12   82 1    
    27   13   14 ar   
    28   13   15 1    
    29   14   83 1    
    30   15   16 1    
    31   15   84 1    
    32   15   85 1    
    33   16   17 1    
    34   17   18 1    
    35   17   86 1    
    36   17   87 1    
    37   18   19 1    
    38   18   37 1    
    39   18   88 1    
    40   19   20 am   BACKBONE|DICT|INTERRES
    41   19   89 1    
    42   20   21 2    
    43   20   22 1    
    44   22   23 1    
    45   22   24 1    
    46   22   90 1    
    47   23   91 1    
    48   23   92 1    
    49   23   93 1    
    50   24   25 am   BACKBONE|DICT|INTERRES
    51   24   94 1    
    52   25   26 2    
    53   25   27 1    
    54   27   28 1    
    55   27   29 1    
    56   27   95 1    
    57   28   96 1    
    58   28   97 1    
    59   28   98 1    
    60   29   30 am   BACKBONE|DICT|INTERRES
    61   29   99 1    
    62   30   31 2    
    63   30   32 1    
    64   32   33 1    
    65   32   34 1    
    66   32  100 1    
    67   33  101 1    
    68   33  102 1    
    69   33  103 1    
    70   34   35 am   BACKBONE|DICT|INTERRES
    71   34  104 1    
    72   35   36 2    
    73   37   38 2    
    74   37   39 am   BACKBONE|DICT|INTERRES
    75   39   40 1    
    76   39  105 1    
    77   40   41 1    
    78   40   42 1    
    79   40  106 1    
    80   41  107 1    
    81   41  108 1    
    82   41  109 1    
    83   42   43 2    
    84   42   44 am   BACKBONE|DICT|INTERRES
    85   44   45 1    
    86   44  110 1    
    87   45   46 1    
    88   45   47 1    
    89   45  111 1    
    90   46  112 1    
    91   46  113 1    
    92   46  114 1    
    93   47   48 2    
    94   47   49 am   BACKBONE|DICT|INTERRES
    95   49   50 1    
    96   49  115 1    
    97   50   51 1    
    98   50   52 1    
    99   50  116 1    
   100   51  117 1    
   101   51  118 1    
   102   51  119 1    
   103   52   53 2    
   104   52   54 am   BACKBONE|DICT|INTERRES
   105   54   55 1    
   106   54  120 1    
   107   55   56 1    
   108   55   57 1    
   109   55  121 1    
   110   56  122 1    
   111   56  123 1    
   112   56  124 1    
   113   57   58 2    
   114   57   59 am   BACKBONE|DICT|INTERRES
   115   59   60 1    
   116   59  125 1    
   117   60   61 1    
   118   60   62 1    
   119   60  126 1    
   120   61  127 1    
   121   61  128 1    
   122   61  129 1    
   123   62   63 2    
   124   62   64 am   BACKBONE|DICT|INTERRES
   125   64   65 1    
   126   64  130 1    
   127   65   66 1    
   128   65   69 1    
   129   65  131 1    
   130   66   67 am   BACKBONE|DICT|INTERRES
   131   66   68 2    
   132   67  132 1    
   133   67  133 1    
   134   69   70 1    
   135   69  134 1    
   136   69  135 1    
   137   70   71 1    
   138   71  136 1    
   139   71  137 1    
@<TRIPOS>SUBSTRUCTURE
     1 UNK         1 GROUP             0       ****    0 ROOT    
