@<TRIPOS>MOLECULE
3R136
137   139    1
SMALL
USER_CHARGES


@<TRIPOS>ATOM
      1 CA         34.1618   20.9078    1.1785 C.3       0 UNK        -0.1979 
      2 C          33.1369   22.0304    1.2496 C.2       0 UNK         0.4864 
      3 O          33.4553   23.1701    0.9083 O.2       0 UNK        -0.5359 
      4 N          31.9147   21.7168    1.6977 N.am      1 UNK        -0.4318 
      5 CA         30.7876   22.6495    1.7984 C.3       1 UNK         0.0824 
      6 C6         29.6251   22.0508    2.6282 C.3       12 UNK        -0.0944 
      7 S7         30.1205   21.7468    4.3580 S.3       12 UNK        -0.2672 
      8 C8         28.8117   22.6143    5.2922 C.3       12 UNK         0.0333 
      9 C9         28.6952   24.1152    5.0207 C.ar      12 UNK        -0.0807 
     10 C10        29.8001   24.8984    4.6670 C.ar      12 UNK        -0.0894 
     11 C11        29.6599   26.2684    4.4248 C.ar      12 UNK        -0.0804 
     12 C12        28.4058   26.8705    4.5761 C.ar      12 UNK        -0.0824 
     13 C13        27.2977   26.1053    4.9581 C.ar      12 UNK        -0.0762 
     14 C14        27.4491   24.7314    5.1659 C.ar      12 UNK        -0.0782 
     15 C15        25.9408   26.7529    5.1992 C.3       12 UNK         0.0230 
     16 S16        24.8286   26.5789    3.7672 S.3       12 UNK        -0.2608 
     17 C17        25.4047   27.9332    2.6921 C.3       12 UNK        -0.0989 
     18 CA         26.1233   27.4136    1.4126 C.3       5 UNK         0.0716 
     19 N          25.2649   26.6071    0.5348 N.am      5 UNK        -0.4135 
     20 C          24.0971   26.9625   -0.0253 C.2       4 UNK         0.5031 
     21 O          23.5595   28.0609    0.1329 O.2       4 UNK        -0.5229 
     22 CA         23.3803   25.8899   -0.8766 C.3       4 UNK         0.0329 
     23 CB         22.4004   26.4916   -1.9082 C.3       4 UNK        -0.2001 
     24 N          24.2956   24.9299   -1.5075 N.am      4 UNK        -0.4303 
     25 C          25.2288   25.1930   -2.4329 C.2       3 UNK         0.5044 
     26 O          25.4003   26.2898   -2.9677 O.2       3 UNK        -0.5152 
     27 CA         26.1632   24.0266   -2.7933 C.3       3 UNK         0.0319 
     28 CB         26.0977   23.7037   -4.2955 C.3       3 UNK        -0.2001 
     29 N          27.5456   24.3297   -2.4182 N.am      3 UNK        -0.4354 
     30 C          27.9713   24.5366   -1.1646 C.2       2 UNK         0.4964 
     31 O          27.2449   24.4697   -0.1681 O.2       2 UNK        -0.5047 
     32 CA         29.4508   24.9199   -1.0048 C.3       2 UNK         0.0288 
     33 CB         29.6074   26.4469   -0.9683 C.3       2 UNK        -0.2113 
     34 N          30.0208   24.3569    0.2180 N.am      2 UNK        -0.4145 
     35 C          30.2905   23.0584    0.3989 C.2       1 UNK         0.5006 
     36 O          30.1424   22.1962   -0.4725 O.2       1 UNK        -0.5103 
     37 C          26.8531   28.5505    0.6630 C.2       5 UNK         0.5055 
     38 O          26.6219   28.8000   -0.5220 O.2       5 UNK        -0.5220 
     39 N          27.7570   29.2080    1.3925 N.am      6 UNK        -0.4450 
     40 CA         28.5734   30.3470    0.9966 C.3       6 UNK         0.0367 
     41 CB         29.7326   29.8778    0.0975 C.3       6 UNK        -0.1929 
     42 C          29.0484   31.0299    2.2907 C.2       6 UNK         0.5070 
     43 O          28.6373   30.6111    3.3784 O.2       6 UNK        -0.5237 
     44 N          29.8761   32.0757    2.1560 N.am      7 UNK        -0.4739 
     45 CA         30.4177   32.8863    3.2554 C.3       7 UNK         0.0276 
     46 CB         31.3589   33.9528    2.6723 C.3       7 UNK        -0.1927 
     47 C          31.1584   32.0580    4.3213 C.2       7 UNK         0.5013 
     48 O          31.8888   31.1310    3.9661 O.2       7 UNK        -0.5193 
     49 N          30.9659   32.4197    5.5975 N.am      8 UNK        -0.4253 
     50 CA         31.5155   31.7292    6.7688 C.3       8 UNK         0.0242 
     51 CB         31.0642   32.4586    8.0446 C.3       8 UNK        -0.2000 
     52 C          33.0483   31.6083    6.7364 C.2       8 UNK         0.4948 
     53 O          33.7286   32.5625    6.3503 O.2       8 UNK        -0.5275 
     54 N          33.5523   30.4307    7.1304 N.am      9 UNK        -0.4246 
     55 CA         34.9558   29.9892    7.1569 C.3       9 UNK         0.0261 
     56 CB         35.8096   30.8639    8.0964 C.3       9 UNK        -0.1959 
     57 C          35.6173   29.8536    5.7712 C.2       9 UNK         0.5033 
     58 O          36.3076   28.8610    5.5365 O.2       9 UNK        -0.5390 
     59 N          35.4063   30.8355    4.8869 N.am      10 UNK        -0.4215 
     60 CA         35.9267   30.8726    3.5201 C.3       10 UNK         0.0240 
     61 CB         35.7480   32.2874    2.9434 C.3       10 UNK        -0.1982 
     62 C          35.2698   29.8238    2.6088 C.2       10 UNK         0.4970 
     63 O          35.9810   29.0894    1.9223 O.2       10 UNK        -0.4916 
     64 N          33.9310   29.7833    2.6215 N.am      11 UNK        -0.4279 
     65 CA         33.0735   28.9017    1.8178 C.3       11 UNK         0.1003 
     66 C          33.2347   29.0545    0.2731 C.2       11 UNK         0.5709 
     67 N          33.6197   30.2249   -0.2231 N.am      11 UNK        -0.7358 
     68 O          32.9893   28.1240   -0.4895 O.2       11 UNK        -0.4999 
     69 C69        33.0947   27.4339    2.3332 C.3       12 UNK        -0.0954 
     70 S70        31.4317   26.6817    2.3448 S.3       12 UNK        -0.2268 
     71 C71        30.8803   27.0879    4.0317 C.3       12 UNK         0.0203 
     72 H72        34.5048   20.7778    0.1525 H         1 UNK         0.0888 
     73 H73        35.0247   21.1479    1.7992 H         1 UNK         0.0888 
     74 H74        33.7513   19.9583    1.5217 H         1 UNK         0.0888 
     75 H75        31.7100   20.7628    1.9570 H         1 UNK         0.3017 
     76 H76        31.1492   23.5465    2.3056 H         1 UNK         0.0873 
     77 H77        28.7614   22.7189    2.6130 H         1 UNK         0.0745 
     78 H78        29.2834   21.1089    2.1946 H         1 UNK         0.0745 
     79 H79        27.8625   22.1213    5.0757 H         1 UNK         0.0705 
     80 H80        28.9968   22.4714    6.3574 H         1 UNK         0.0705 
     81 H81        30.7777   24.4466    4.5738 H         1 UNK         0.1334 
     82 H82        28.2991   27.9355    4.4219 H         1 UNK         0.1417 
     83 H83        26.5905   24.1422    5.4597 H         1 UNK         0.1562 
     84 H84        26.0533   27.8045    5.4673 H         1 UNK         0.0748 
     85 H85        25.4663   26.2804    6.0608 H         1 UNK         0.0748 
     86 H86        26.0541   28.5814    3.2810 H         1 UNK         0.0940 
     87 H87        24.5478   28.5570    2.4354 H         1 UNK         0.0940 
     88 H88        26.9124   26.7307    1.7336 H         1 UNK         0.0703 
     89 H89        25.6540   25.7021    0.2935 H         1 UNK         0.3081 
     90 H90        22.7854   25.3094   -0.1699 H         1 UNK         0.0719 
     91 H91        22.9051   27.1625   -2.6039 H         1 UNK         0.0809 
     92 H92        21.9067   25.7130   -2.4893 H         1 UNK         0.0809 
     93 H93        21.6184   27.0691   -1.4136 H         1 UNK         0.0809 
     94 H94        24.2604   23.9922   -1.1304 H         1 UNK         0.2990 
     95 H95        25.8552   23.1352   -2.2422 H         1 UNK         0.0690 
     96 H96        26.7182   22.8426   -4.5447 H         1 UNK         0.0788 
     97 H97        26.4292   24.5450   -4.9058 H         1 UNK         0.0788 
     98 H98        25.0770   23.4650   -4.5978 H         1 UNK         0.0788 
     99 H99        28.1990   24.4453   -3.1793 H         1 UNK         0.2993 
    100 H100       30.0123   24.5300   -1.8568 H         1 UNK         0.0949 
    101 H101       29.1544   26.9148   -1.8435 H         1 UNK         0.0767 
    102 H102       29.1321   26.8741   -0.0858 H         1 UNK         0.0767 
    103 H103       30.6583   26.7361   -0.9523 H         1 UNK         0.0767 
    104 H104       30.1636   25.0003    0.9845 H         1 UNK         0.3013 
    105 H105       27.8572   28.9995    2.3788 H         1 UNK         0.3121 
    106 H106       27.9527   31.0619    0.4528 H         1 UNK         0.0774 
    107 H107       30.4337   30.6821   -0.1256 H         1 UNK         0.0815 
    108 H108       30.2891   29.0670    0.5645 H         1 UNK         0.0815 
    109 H109       29.3614   29.5087   -0.8585 H         1 UNK         0.0815 
    110 H110       30.1644   32.3418    1.2260 H         1 UNK         0.2987 
    111 H111       29.5727   33.3879    3.7318 H         1 UNK         0.0949 
    112 H112       31.7684   34.5872    3.4599 H         1 UNK         0.0806 
    113 H113       32.2026   33.5011    2.1486 H         1 UNK         0.0806 
    114 H114       30.8377   34.6057    1.9719 H         1 UNK         0.0806 
    115 H115       30.3803   33.2193    5.7881 H         1 UNK         0.3010 
    116 H116       31.0866   30.7248    6.7741 H         1 UNK         0.0829 
    117 H117       29.9772   32.4907    8.1228 H         1 UNK         0.0813 
    118 H118       31.4360   31.9533    8.9371 H         1 UNK         0.0813 
    119 H119       31.4349   33.4843    8.0737 H         1 UNK         0.0813 
    120 H120       32.8904   29.7177    7.4057 H         1 UNK         0.3038 
    121 H121       34.9335   28.9855    7.5848 H         1 UNK         0.0769 
    122 H122       35.9020   31.8880    7.7339 H         1 UNK         0.0811 
    123 H123       36.8198   30.4626    8.1877 H         1 UNK         0.0811 
    124 H124       35.3842   30.9006    9.0993 H         1 UNK         0.0811 
    125 H125       34.8233   31.6123    5.1937 H         1 UNK         0.3204 
    126 H126       36.9962   30.6550    3.5608 H         1 UNK         0.0748 
    127 H127       36.2971   33.0243    3.5299 H         1 UNK         0.0771 
    128 H128       36.1235   32.3438    1.9207 H         1 UNK         0.0771 
    129 H129       34.6999   32.5901    2.9263 H         1 UNK         0.0771 
    130 H130       33.4137   30.4215    3.2227 H         1 UNK         0.2980 
    131 H131       32.0782   29.2982    2.0143 H         1 UNK         0.0545 
    132 H132       33.7200   30.3259   -1.2205 H         1 UNK         0.3459 
    133 H133       33.8229   30.9994    0.3870 H         1 UNK         0.3459 
    134 H134       33.4942   27.3851    3.3473 H         1 UNK         0.0616 
    135 H135       33.7628   26.8121    1.7347 H         1 UNK         0.0616 
    136 H136       31.6830   26.8853    4.7421 H         1 UNK         0.0634 
    137 H137       30.6729   28.1580    4.0916 H         1 UNK         0.0634 
@<TRIPOS>BOND
     1    1    2 1    
     2    1   72 1    
     3    1   73 1    
     4    1   74 1    
     5    2    3 2    
     6    2    4 am   BACKBONE|DICT|INTERRES
     7    4    5 1    
     8    4   75 1    
     9    5    6 1    
    10    5   35 1    
    11    5   76 1    
    12    6    7 1    
    13    6   77 1    
    14    6   78 1    
    15    7    8 1    
    16    8    9 1    
    17    8   79 1    
    18    8   80 1    
    19    9   10 ar   
    20    9   14 ar   
    21   10   11 ar   
    22   10   81 1    
    23   11   12 ar   
    24   11   71 1    
    25   12   13 ar   
    26   12   82 1    
    27   13   14 ar   
    28   13   15 1    
    29   14   83 1    
    30   15   16 1    
    31   15   84 1    
    32   15   85 1    
    33   16   17 1    
    34   17   18 1    
    35   17   86 1    
    36   17   87 1    
    37   18   19 1    
    38   18   37 1    
    39   18   88 1    
    40   19   20 am   BACKBONE|DICT|INTERRES
    41   19   89 1    
    42   20   21 2    
    43   20   22 1    
    44   22   23 1    
    45   22   24 1    
    46   22   90 1    
    47   23   91 1    
    48   23   92 1    
    49   23   93 1    
    50   24   25 am   BACKBONE|DICT|INTERRES
    51   24   94 1    
    52   25   26 2    
    53   25   27 1    
    54   27   28 1    
    55   27   29 1    
    56   27   95 1    
    57   28   96 1    
    58   28   97 1    
    59   28   98 1    
    60   29   30 am   BACKBONE|DICT|INTERRES
    61   29   99 1    
    62   30   31 2    
    63   30   32 1    
    64   32   33 1    
    65   32   34 1    
    66   32  100 1    
    67   33  101 1    
    68   33  102 1    
    69   33  103 1    
    70   34   35 am   BACKBONE|DICT|INTERRES
    71   34  104 1    
    72   35   36 2    
    73   37   38 2    
    74   37   39 am   BACKBONE|DICT|INTERRES
    75   39   40 1    
    76   39  105 1    
    77   40   41 1    
    78   40   42 1    
    79   40  106 1    
    80   41  107 1    
    81   41  108 1    
    82   41  109 1    
    83   42   43 2    
    84   42   44 am   BACKBONE|DICT|INTERRES
    85   44   45 1    
    86   44  110 1    
    87   45   46 1    
    88   45   47 1    
    89   45  111 1    
    90   46  112 1    
    91   46  113 1    
    92   46  114 1    
    93   47   48 2    
    94   47   49 am   BACKBONE|DICT|INTERRES
    95   49   50 1    
    96   49  115 1    
    97   50   51 1    
    98   50   52 1    
    99   50  116 1    
   100   51  117 1    
   101   51  118 1    
   102   51  119 1    
   103   52   53 2    
   104   52   54 am   BACKBONE|DICT|INTERRES
   105   54   55 1    
   106   54  120 1    
   107   55   56 1    
   108   55   57 1    
   109   55  121 1    
   110   56  122 1    
   111   56  123 1    
   112   56  124 1    
   113   57   58 2    
   114   57   59 am   BACKBONE|DICT|INTERRES
   115   59   60 1    
   116   59  125 1    
   117   60   61 1    
   118   60   62 1    
   119   60  126 1    
   120   61  127 1    
   121   61  128 1    
   122   61  129 1    
   123   62   63 2    
   124   62   64 am   BACKBONE|DICT|INTERRES
   125   64   65 1    
   126   64  130 1    
   127   65   66 1    
   128   65   69 1    
   129   65  131 1    
   130   66   67 am   BACKBONE|DICT|INTERRES
   131   66   68 2    
   132   67  132 1    
   133   67  133 1    
   134   69   70 1    
   135   69  134 1    
   136   69  135 1    
   137   70   71 1    
   138   71  136 1    
   139   71  137 1    
@<TRIPOS>SUBSTRUCTURE
     1 UNK         1 GROUP             0       ****    0 ROOT    
