@<TRIPOS>MOLECULE
3R136
137   139    1
SMALL
USER_CHARGES


@<TRIPOS>ATOM
      1 CA         31.8067   28.8600   -3.0022 C.3       0 UNK        -0.1979 
      2 C          30.5682   28.2649   -2.3494 C.2       0 UNK         0.4864 
      3 O          29.4637   28.7665   -2.5668 O.2       0 UNK        -0.5359 
      4 N          30.7444   27.1996   -1.5579 N.am      1 UNK        -0.4318 
      5 CA         29.6646   26.4585   -0.9018 C.3       1 UNK         0.0824 
      6 C6         30.1765   25.6204    0.2974 C.3       12 UNK        -0.0944 
      7 S7         31.5680   24.5041   -0.0928 S.3       12 UNK        -0.2672 
      8 C8         31.0398   22.9747    0.7498 C.3       12 UNK         0.0333 
      9 C9         30.8398   23.1534    2.2530 C.ar      12 UNK        -0.0807 
     10 C10        31.7948   23.8231    3.0279 C.ar      12 UNK        -0.0894 
     11 C11        31.6068   23.9872    4.4021 C.ar      12 UNK        -0.0804 
     12 C12        30.4710   23.4491    5.0090 C.ar      12 UNK        -0.0824 
     13 C13        29.5055   22.7830    4.2498 C.ar      12 UNK        -0.0762 
     14 C14        29.6955   22.6362    2.8719 C.ar      12 UNK        -0.0782 
     15 C15        28.2575   22.2316    4.9273 C.3       12 UNK         0.0230 
     16 S16        26.7855   23.2697    4.6396 S.3       12 UNK        -0.2608 
     17 C17        27.3559   24.9229    5.1669 C.3       12 UNK        -0.0989 
     18 CA         27.5978   25.8308    3.9346 C.3       5 UNK         0.0716 
     19 N          26.3302   26.2306    3.3234 N.am      5 UNK        -0.4135 
     20 C          26.1305   26.4541    2.0223 C.2       4 UNK         0.5031 
     21 O          26.9945   26.3173    1.1502 O.2       4 UNK        -0.5229 
     22 CA         24.7301   26.9425    1.6262 C.3       4 UNK         0.0329 
     23 CB         24.7937   28.3820    1.0898 C.3       4 UNK        -0.2001 
     24 N          24.1898   26.0639    0.5950 N.am      4 UNK        -0.4303 
     25 C          23.6188   24.8729    0.8279 C.2       3 UNK         0.5044 
     26 O          23.3063   24.4659    1.9473 O.2       3 UNK        -0.5152 
     27 CA         23.3924   23.9696   -0.4005 C.3       3 UNK         0.0319 
     28 CB         22.0026   24.2153   -1.0093 C.3       3 UNK        -0.2001 
     29 N          24.4213   24.1731   -1.4263 N.am      3 UNK        -0.4354 
     30 C          25.7146   23.8561   -1.2661 C.2       2 UNK         0.4964 
     31 O          26.1435   23.1908   -0.3222 O.2       2 UNK        -0.5047 
     32 CA         26.7105   24.4260   -2.2821 C.3       2 UNK         0.0288 
     33 CB         26.0699   25.2168   -3.4464 C.3       2 UNK        -0.2113 
     34 N          27.6284   25.2795   -1.5333 N.am      2 UNK        -0.4145 
     35 C          28.8717   25.5950   -1.9042 C.2       1 UNK         0.5006 
     36 O          29.3925   25.2170   -2.9585 O.2       1 UNK        -0.5103 
     37 C          28.3921   27.1046    4.2729 C.2       5 UNK         0.5055 
     38 O          28.4058   27.5395    5.4258 O.2       5 UNK        -0.5220 
     39 N          28.9820   27.7118    3.2385 N.am      6 UNK        -0.4450 
     40 CA         29.7039   28.9773    3.2967 C.3       6 UNK         0.0367 
     41 CB         28.6999   30.1335    3.1247 C.3       6 UNK        -0.1929 
     42 C          30.7746   28.9585    2.2012 C.2       6 UNK         0.5070 
     43 O          30.5250   29.4555    1.1036 O.2       6 UNK        -0.5237 
     44 N          31.9167   28.3205    2.4967 N.am      7 UNK        -0.4739 
     45 CA         33.0063   28.0351    1.5507 C.3       7 UNK         0.0276 
     46 CB         34.1306   27.2804    2.2761 C.3       7 UNK        -0.1927 
     47 C          33.5725   29.2645    0.8187 C.2       7 UNK         0.5013 
     48 O          33.8239   29.1874   -0.3839 O.2       7 UNK        -0.5193 
     49 N          33.7435   30.3708    1.5478 N.am      8 UNK        -0.4253 
     50 CA         34.1537   31.6699    1.0222 C.3       8 UNK         0.0242 
     51 CB         35.6910   31.7788    1.0356 C.3       8 UNK        -0.2000 
     52 C          33.4628   32.7412    1.8704 C.2       8 UNK         0.4948 
     53 O          34.1132   33.3899    2.6901 O.2       8 UNK        -0.5275 
     54 N          32.1284   32.8180    1.7468 N.am      9 UNK        -0.4246 
     55 CA         31.1734   33.6023    2.5555 C.3       9 UNK         0.0261 
     56 CB         31.5008   35.1089    2.5458 C.3       9 UNK        -0.1959 
     57 C          30.9845   33.0752    3.9938 C.2       9 UNK         0.5033 
     58 O          29.9029   33.2380    4.5589 O.2       9 UNK        -0.5390 
     59 N          32.0037   32.4033    4.5296 N.am      10 UNK        -0.4215 
     60 CA         31.9929   31.5592    5.7154 C.3       10 UNK         0.0240 
     61 CB         32.4007   32.3927    6.9433 C.3       10 UNK        -0.1982 
     62 C          32.9728   30.4035    5.4604 C.2       10 UNK         0.4970 
     63 O          33.7000   30.4271    4.4624 O.2       10 UNK        -0.4916 
     64 N          32.9778   29.4150    6.3585 N.am      11 UNK        -0.4279 
     65 CA         33.9424   28.3002    6.3553 C.3       11 UNK         0.1003 
     66 C          35.2469   28.5981    7.1525 C.2       11 UNK         0.5709 
     67 N          35.3839   29.7433    7.8113 N.am      11 UNK        -0.7358 
     68 O          36.1630   27.7794    7.1602 O.2       11 UNK        -0.4999 
     69 C69        33.2792   26.9774    6.8144 C.3       12 UNK        -0.0954 
     70 S70        32.0035   26.4150    5.6390 S.3       12 UNK        -0.2268 
     71 C71        32.6181   24.7495    5.2407 C.3       12 UNK         0.0203 
     72 H72        31.6694   28.9298   -4.0809 H         1 UNK         0.0888 
     73 H73        31.9887   29.8615   -2.6130 H         1 UNK         0.0888 
     74 H74        32.6952   28.2580   -2.8117 H         1 UNK         0.0888 
     75 H75        31.6646   26.7977   -1.4531 H         1 UNK         0.3017 
     76 H76        28.9686   27.2007   -0.5031 H         1 UNK         0.0873 
     77 H77        29.3573   25.0468    0.7352 H         1 UNK         0.0745 
     78 H78        30.5097   26.2828    1.0933 H         1 UNK         0.0745 
     79 H79        30.1235   22.6179    0.2763 H         1 UNK         0.0705 
     80 H80        31.7942   22.2045    0.5856 H         1 UNK         0.0705 
     81 H81        32.6799   24.2262    2.5561 H         1 UNK         0.1334 
     82 H82        30.3306   23.5719    6.0745 H         1 UNK         0.1417 
     83 H83        28.9463   22.1228    2.2839 H         1 UNK         0.1562 
     84 H84        28.4161   22.1329    6.0024 H         1 UNK         0.0748 
     85 H85        28.0574   21.2249    4.5576 H         1 UNK         0.0748 
     86 H86        28.2568   24.8252    5.7730 H         1 UNK         0.0940 
     87 H87        26.6076   25.3590    5.8312 H         1 UNK         0.0940 
     88 H88        28.1926   25.2669    3.2117 H         1 UNK         0.0703 
     89 H89        25.5654   26.3839    3.9641 H         1 UNK         0.3081 
     90 H90        24.0706   26.9267    2.4968 H         1 UNK         0.0719 
     91 H91        25.1860   29.0625    1.8468 H         1 UNK         0.0809 
     92 H92        25.4405   28.4623    0.2148 H         1 UNK         0.0809 
     93 H93        23.8045   28.7447    0.8098 H         1 UNK         0.0809 
     94 H94        24.4256   26.2979   -0.3573 H         1 UNK         0.2990 
     95 H95        23.4431   22.9313   -0.0654 H         1 UNK         0.0690 
     96 H96        21.8090   23.5389   -1.8421 H         1 UNK         0.0788 
     97 H97        21.8933   25.2377   -1.3734 H         1 UNK         0.0788 
     98 H98        21.2190   24.0478   -0.2689 H         1 UNK         0.0788 
     99 H99        24.1529   24.6987   -2.2461 H         1 UNK         0.2993 
    100 H100       27.2631   23.5779   -2.6923 H         1 UNK         0.0949 
    101 H101       25.5441   26.1069   -3.0985 H         1 UNK         0.0767 
    102 H102       26.8279   25.5462   -4.1574 H         1 UNK         0.0767 
    103 H103       25.3647   24.6004   -4.0057 H         1 UNK         0.0767 
    104 H104       27.3073   25.5740   -0.6120 H         1 UNK         0.3013 
    105 H105       28.8811   27.3038    2.3177 H         1 UNK         0.3121 
    106 H106       30.2062   29.0832    4.2609 H         1 UNK         0.0774 
    107 H107       29.2117   31.0866    3.0094 H         1 UNK         0.0815 
    108 H108       28.0752   29.9969    2.2409 H         1 UNK         0.0815 
    109 H109       28.0422   30.2190    3.9896 H         1 UNK         0.0815 
    110 H110       32.0172   27.9240    3.4214 H         1 UNK         0.2987 
    111 H111       32.5995   27.3732    0.7852 H         1 UNK         0.0949 
    112 H112       34.6058   27.9003    3.0363 H         1 UNK         0.0806 
    113 H113       33.7595   26.3774    2.7587 H         1 UNK         0.0806 
    114 H114       34.9083   26.9752    1.5747 H         1 UNK         0.0806 
    115 H115       33.5620   30.3300    2.5482 H         1 UNK         0.3010 
    116 H116       33.8029   31.7875   -0.0057 H         1 UNK         0.0829 
    117 H117       36.0961   31.6355    2.0383 H         1 UNK         0.0813 
    118 H118       36.0160   32.7596    0.6865 H         1 UNK         0.0813 
    119 H119       36.1457   31.0340    0.3824 H         1 UNK         0.0813 
    120 H120       31.6960   32.1905    1.0806 H         1 UNK         0.3038 
    121 H121       30.2090   33.4786    2.0601 H         1 UNK         0.0769 
    122 H122       31.6036   35.4869    1.5287 H         1 UNK         0.0811 
    123 H123       32.4220   35.3336    3.0837 H         1 UNK         0.0811 
    124 H124       30.7041   35.6794    3.0249 H         1 UNK         0.0811 
    125 H125       32.8690   32.3581    3.9990 H         1 UNK         0.3204 
    126 H126       30.9942   31.1415    5.8601 H         1 UNK         0.0748 
    127 H127       33.4116   32.7903    6.8424 H         1 UNK         0.0771 
    128 H128       31.7255   33.2365    7.0872 H         1 UNK         0.0771 
    129 H129       32.3686   31.7982    7.8569 H         1 UNK         0.0771 
    130 H130       32.3481   29.4526    7.1467 H         1 UNK         0.2980 
    131 H131       34.2831   28.1383    5.3323 H         1 UNK         0.0545 
    132 H132       36.2387   29.9199    8.3154 H         1 UNK         0.3459 
    133 H133       34.6494   30.4310    7.8084 H         1 UNK         0.3459 
    134 H134       32.8205   27.0968    7.7972 H         1 UNK         0.0616 
    135 H135       34.0258   26.1887    6.9235 H         1 UNK         0.0616 
    136 H136       32.8080   24.2006    6.1644 H         1 UNK         0.0634 
    137 H137       33.5745   24.8288    4.7219 H         1 UNK         0.0634 
@<TRIPOS>BOND
     1    1    2 1    
     2    1   72 1    
     3    1   73 1    
     4    1   74 1    
     5    2    3 2    
     6    2    4 am   BACKBONE|DICT|INTERRES
     7    4    5 1    
     8    4   75 1    
     9    5    6 1    
    10    5   35 1    
    11    5   76 1    
    12    6    7 1    
    13    6   77 1    
    14    6   78 1    
    15    7    8 1    
    16    8    9 1    
    17    8   79 1    
    18    8   80 1    
    19    9   10 ar   
    20    9   14 ar   
    21   10   11 ar   
    22   10   81 1    
    23   11   12 ar   
    24   11   71 1    
    25   12   13 ar   
    26   12   82 1    
    27   13   14 ar   
    28   13   15 1    
    29   14   83 1    
    30   15   16 1    
    31   15   84 1    
    32   15   85 1    
    33   16   17 1    
    34   17   18 1    
    35   17   86 1    
    36   17   87 1    
    37   18   19 1    
    38   18   37 1    
    39   18   88 1    
    40   19   20 am   BACKBONE|DICT|INTERRES
    41   19   89 1    
    42   20   21 2    
    43   20   22 1    
    44   22   23 1    
    45   22   24 1    
    46   22   90 1    
    47   23   91 1    
    48   23   92 1    
    49   23   93 1    
    50   24   25 am   BACKBONE|DICT|INTERRES
    51   24   94 1    
    52   25   26 2    
    53   25   27 1    
    54   27   28 1    
    55   27   29 1    
    56   27   95 1    
    57   28   96 1    
    58   28   97 1    
    59   28   98 1    
    60   29   30 am   BACKBONE|DICT|INTERRES
    61   29   99 1    
    62   30   31 2    
    63   30   32 1    
    64   32   33 1    
    65   32   34 1    
    66   32  100 1    
    67   33  101 1    
    68   33  102 1    
    69   33  103 1    
    70   34   35 am   BACKBONE|DICT|INTERRES
    71   34  104 1    
    72   35   36 2    
    73   37   38 2    
    74   37   39 am   BACKBONE|DICT|INTERRES
    75   39   40 1    
    76   39  105 1    
    77   40   41 1    
    78   40   42 1    
    79   40  106 1    
    80   41  107 1    
    81   41  108 1    
    82   41  109 1    
    83   42   43 2    
    84   42   44 am   BACKBONE|DICT|INTERRES
    85   44   45 1    
    86   44  110 1    
    87   45   46 1    
    88   45   47 1    
    89   45  111 1    
    90   46  112 1    
    91   46  113 1    
    92   46  114 1    
    93   47   48 2    
    94   47   49 am   BACKBONE|DICT|INTERRES
    95   49   50 1    
    96   49  115 1    
    97   50   51 1    
    98   50   52 1    
    99   50  116 1    
   100   51  117 1    
   101   51  118 1    
   102   51  119 1    
   103   52   53 2    
   104   52   54 am   BACKBONE|DICT|INTERRES
   105   54   55 1    
   106   54  120 1    
   107   55   56 1    
   108   55   57 1    
   109   55  121 1    
   110   56  122 1    
   111   56  123 1    
   112   56  124 1    
   113   57   58 2    
   114   57   59 am   BACKBONE|DICT|INTERRES
   115   59   60 1    
   116   59  125 1    
   117   60   61 1    
   118   60   62 1    
   119   60  126 1    
   120   61  127 1    
   121   61  128 1    
   122   61  129 1    
   123   62   63 2    
   124   62   64 am   BACKBONE|DICT|INTERRES
   125   64   65 1    
   126   64  130 1    
   127   65   66 1    
   128   65   69 1    
   129   65  131 1    
   130   66   67 am   BACKBONE|DICT|INTERRES
   131   66   68 2    
   132   67  132 1    
   133   67  133 1    
   134   69   70 1    
   135   69  134 1    
   136   69  135 1    
   137   70   71 1    
   138   71  136 1    
   139   71  137 1    
@<TRIPOS>SUBSTRUCTURE
     1 UNK         1 GROUP             0       ****    0 ROOT    
