@<TRIPOS>MOLECULE
3R136
137   139    1
SMALL
USER_CHARGES


@<TRIPOS>ATOM
      1 CA         31.7519   18.4947   -2.8611 C.3       0 UNK        -0.1979 
      2 C          31.7143   19.8215   -2.1167 C.2       0 UNK         0.4864 
      3 O          32.6838   20.5803   -2.1703 O.2       0 UNK        -0.5359 
      4 N          30.6074   20.1030   -1.4169 N.am      1 UNK        -0.4318 
      5 CA         30.3715   21.3584   -0.6990 C.3       1 UNK         0.0824 
      6 C6         29.2145   21.2032    0.3225 C.3       12 UNK        -0.0944 
      7 S7         29.1474   22.5768    1.5239 S.3       12 UNK        -0.2672 
      8 C8         29.4183   21.7179    3.1030 C.3       12 UNK         0.0333 
      9 C9         29.5352   22.7196    4.2416 C.ar      12 UNK        -0.0807 
     10 C10        30.7688   22.9501    4.8598 C.ar      12 UNK        -0.0894 
     11 C11        30.8869   23.8895    5.8902 C.ar      12 UNK        -0.0804 
     12 C12        29.7488   24.5925    6.3034 C.ar      12 UNK        -0.0824 
     13 C13        28.5176   24.3922    5.6738 C.ar      12 UNK        -0.0762 
     14 C14        28.4110   23.4389    4.6583 C.ar      12 UNK        -0.0782 
     15 C15        27.3181   25.2476    6.0565 C.3       12 UNK         0.0230 
     16 S16        26.9080   26.4634    4.7588 S.3       12 UNK        -0.2608 
     17 C17        28.5276   27.2616    4.4581 C.3       12 UNK        -0.0989 
     18 CA         28.4780   28.5489    3.5962 C.3       5 UNK         0.0716 
     19 N          27.6977   28.3817    2.3686 N.am      5 UNK        -0.4135 
     20 C          27.6624   29.2500    1.3505 C.2       4 UNK         0.5031 
     21 O          28.3333   30.2848    1.3250 O.2       4 UNK        -0.5229 
     22 CA         26.7448   28.9072    0.1589 C.3       4 UNK         0.0329 
     23 CB         26.9805   29.8390   -1.0450 C.3       4 UNK        -0.2001 
     24 N          26.8902   27.5188   -0.2882 N.am      4 UNK        -0.4303 
     25 C          26.3481   26.4433    0.2934 C.2       3 UNK         0.5044 
     26 O          25.6544   26.5069    1.3080 O.2       3 UNK        -0.5152 
     27 CA         26.6446   25.0649   -0.3238 C.3       3 UNK         0.0319 
     28 CB         25.6492   24.7341   -1.4523 C.3       3 UNK        -0.2001 
     29 N          28.0363   24.8612   -0.7530 N.am      3 UNK        -0.4354 
     30 C          28.7144   25.4371   -1.7591 C.2       2 UNK         0.4964 
     31 O          28.2478   26.3177   -2.4822 O.2       2 UNK        -0.5047 
     32 CA         30.1708   24.9827   -1.9850 C.3       2 UNK         0.0288 
     33 CB         31.1469   26.0755   -1.5200 C.3       2 UNK        -0.2113 
     34 N          30.5025   23.7300   -1.2993 N.am      2 UNK        -0.4145 
     35 C          30.0947   22.5134   -1.6871 C.2       1 UNK         0.5006 
     36 O          29.4751   22.2979   -2.7327 O.2       1 UNK        -0.5103 
     37 C          28.0027   29.7814    4.3891 C.2       5 UNK         0.5055 
     38 O          26.7994   29.9460    4.6015 O.2       5 UNK        -0.5220 
     39 N          28.9534   30.6550    4.7478 N.am      6 UNK        -0.4450 
     40 CA         28.8078   31.9654    5.3985 C.3       6 UNK         0.0367 
     41 CB         28.0667   31.8653    6.7464 C.3       6 UNK        -0.1929 
     42 C          28.1935   33.0523    4.4956 C.2       6 UNK         0.5070 
     43 O          28.5488   34.2214    4.6466 O.2       6 UNK        -0.5237 
     44 N          27.3107   32.6652    3.5658 N.am      7 UNK        -0.4739 
     45 CA         26.7145   33.5320    2.5483 C.3       7 UNK         0.0276 
     46 CB         25.5528   32.7916    1.8662 C.3       7 UNK        -0.1927 
     47 C          27.7369   34.0157    1.5058 C.2       7 UNK         0.5013 
     48 O          27.6566   35.1678    1.0770 O.2       7 UNK        -0.5193 
     49 N          28.6773   33.1399    1.1292 N.am      8 UNK        -0.4253 
     50 CA         29.7615   33.4365    0.1932 C.3       8 UNK         0.0242 
     51 CB         29.2934   33.2064   -1.2553 C.3       8 UNK        -0.2000 
     52 C          31.0240   32.6196    0.4977 C.2       8 UNK         0.4948 
     53 O          32.1216   33.1767    0.4474 O.2       8 UNK        -0.5275 
     54 N          30.8623   31.3229    0.7901 N.am      9 UNK        -0.4246 
     55 CA         31.9572   30.3988    1.0814 C.3       9 UNK         0.0261 
     56 CB         31.5514   28.9894    0.6208 C.3       9 UNK        -0.1959 
     57 C          32.2935   30.3954    2.5787 C.2       9 UNK         0.5033 
     58 O          31.4059   30.6045    3.4102 O.2       9 UNK        -0.5390 
     59 N          33.5587   30.1022    2.8910 N.am      10 UNK        -0.4215 
     60 CA         34.0677   29.8973    4.2450 C.3       10 UNK         0.0240 
     61 CB         35.1254   30.9685    4.5592 C.3       10 UNK        -0.1982 
     62 C          34.6773   28.4931    4.3272 C.2       10 UNK         0.4970 
     63 O          35.2341   28.0106    3.3371 O.2       10 UNK        -0.4916 
     64 N          34.5580   27.8697    5.5020 N.am      11 UNK        -0.4279 
     65 CA         35.0613   26.5194    5.7919 C.3       11 UNK         0.1003 
     66 C          36.6082   26.4751    5.9166 C.2       11 UNK         0.5709 
     67 N          37.2256   25.3527    5.5737 N.am      11 UNK        -0.7358 
     68 O          37.2478   27.4299    6.3555 O.2       11 UNK        -0.4999 
     69 C69        34.3821   25.9258    7.0536 C.3       12 UNK        -0.0954 
     70 S70        32.5657   25.8954    6.8921 S.3       12 UNK        -0.2268 
     71 C71        32.2489   24.1340    6.5377 C.3       12 UNK         0.0203 
     72 H72        30.8380   17.9190   -2.7151 H         1 UNK         0.0888 
     73 H73        31.8760   18.6681   -3.9298 H         1 UNK         0.0888 
     74 H74        32.5908   17.8926   -2.5132 H         1 UNK         0.0888 
     75 H75        29.8317   19.4566   -1.4379 H         1 UNK         0.3017 
     76 H76        31.2861   21.5895   -0.1474 H         1 UNK         0.0873 
     77 H77        28.2495   21.1311   -0.1839 H         1 UNK         0.0745 
     78 H78        29.3300   20.2677    0.8725 H         1 UNK         0.0745 
     79 H79        30.3188   21.1055    3.0333 H         1 UNK         0.0705 
     80 H80        28.5880   21.0367    3.2956 H         1 UNK         0.0705 
     81 H81        31.6417   22.4027    4.5307 H         1 UNK         0.1334 
     82 H82        29.8268   25.3253    7.0945 H         1 UNK         0.1417 
     83 H83        27.4614   23.2864    4.1630 H         1 UNK         0.1562 
     84 H84        27.5018   25.7772    6.9927 H         1 UNK         0.0748 
     85 H85        26.4529   24.6066    6.2315 H         1 UNK         0.0748 
     86 H86        29.1613   26.5303    3.9531 H         1 UNK         0.0940 
     87 H87        29.0163   27.4580    5.4146 H         1 UNK         0.0940 
     88 H88        29.5030   28.7450    3.2775 H         1 UNK         0.0703 
     89 H89        27.0624   27.5912    2.3459 H         1 UNK         0.3081 
     90 H90        25.7182   29.0578    0.4991 H         1 UNK         0.0719 
     91 H91        27.9986   29.7512   -1.4266 H         1 UNK         0.0809 
     92 H92        26.2959   29.6120   -1.8623 H         1 UNK         0.0809 
     93 H93        26.8209   30.8835   -0.7741 H         1 UNK         0.0809 
     94 H94        27.4495   27.3565   -1.1216 H         1 UNK         0.2990 
     95 H95        26.4834   24.3344    0.4710 H         1 UNK         0.0690 
     96 H96        25.8108   23.7282   -1.8400 H         1 UNK         0.0788 
     97 H97        25.7282   25.4319   -2.2865 H         1 UNK         0.0788 
     98 H98        24.6217   24.7806   -1.0891 H         1 UNK         0.0788 
     99 H99        28.5434   24.1876   -0.1935 H         1 UNK         0.2993 
    100 H100       30.3018   24.8362   -3.0595 H         1 UNK         0.0949 
    101 H101       30.9511   27.0185   -2.0326 H         1 UNK         0.0767 
    102 H102       31.0621   26.2606   -0.4485 H         1 UNK         0.0767 
    103 H103       32.1805   25.8024   -1.7337 H         1 UNK         0.0767 
    104 H104       30.9992   23.8153   -0.4235 H         1 UNK         0.3013 
    105 H105       29.8964   30.4851    4.3924 H         1 UNK         0.3121 
    106 H106       29.8278   32.2895    5.6117 H         1 UNK         0.0774 
    107 H107       28.0942   32.8200    7.2731 H         1 UNK         0.0815 
    108 H108       27.0169   31.6002    6.6193 H         1 UNK         0.0815 
    109 H109       28.5257   31.1219    7.3980 H         1 UNK         0.0815 
    110 H110       27.0413   31.6877    3.5610 H         1 UNK         0.2987 
    111 H111       26.3123   34.4145    3.0508 H         1 UNK         0.0949 
    112 H112       25.0790   33.4207    1.1114 H         1 UNK         0.0806 
    113 H113       25.8893   31.8821    1.3683 H         1 UNK         0.0806 
    114 H114       24.7826   32.5140    2.5860 H         1 UNK         0.0806 
    115 H115       28.6402   32.1977    1.5073 H         1 UNK         0.3010 
    116 H116       30.0384   34.4879    0.3005 H         1 UNK         0.0829 
    117 H117       28.4540   33.8536   -1.5095 H         1 UNK         0.0813 
    118 H118       30.0946   33.4220   -1.9635 H         1 UNK         0.0813 
    119 H119       28.9819   32.1743   -1.4178 H         1 UNK         0.0813 
    120 H120       29.9232   30.9390    0.8776 H         1 UNK         0.3038 
    121 H121       32.8440   30.7011    0.5197 H         1 UNK         0.0769 
    122 H122       32.3629   28.2769    0.7743 H         1 UNK         0.0811 
    123 H123       31.3077   28.9790   -0.4415 H         1 UNK         0.0811 
    124 H124       30.6839   28.6164    1.1648 H         1 UNK         0.0811 
    125 H125       34.2032   29.8543    2.1517 H         1 UNK         0.3204 
    126 H126       33.2599   29.9720    4.9766 H         1 UNK         0.0748 
    127 H127       35.5248   30.8411    5.5663 H         1 UNK         0.0771 
    128 H128       35.9665   30.9228    3.8658 H         1 UNK         0.0771 
    129 H129       34.6999   31.9707    4.5031 H         1 UNK         0.0771 
    130 H130       34.1099   28.3437    6.2715 H         1 UNK         0.2980 
    131 H131       34.7880   25.8875    4.9439 H         1 UNK         0.0545 
    132 H132       36.7118   24.5593    5.2232 H         1 UNK         0.3459 
    133 H133       38.2285   25.2999    5.6615 H         1 UNK         0.3459 
    134 H134       34.6338   26.5159    7.9368 H         1 UNK         0.0616 
    135 H135       34.7429   24.9146    7.2511 H         1 UNK         0.0616 
    136 H136       33.0404   23.7648    5.8835 H         1 UNK         0.0634 
    137 H137       32.3142   23.5642    7.4653 H         1 UNK         0.0634 
@<TRIPOS>BOND
     1    1    2 1    
     2    1   72 1    
     3    1   73 1    
     4    1   74 1    
     5    2    3 2    
     6    2    4 am   BACKBONE|DICT|INTERRES
     7    4    5 1    
     8    4   75 1    
     9    5    6 1    
    10    5   35 1    
    11    5   76 1    
    12    6    7 1    
    13    6   77 1    
    14    6   78 1    
    15    7    8 1    
    16    8    9 1    
    17    8   79 1    
    18    8   80 1    
    19    9   10 ar   
    20    9   14 ar   
    21   10   11 ar   
    22   10   81 1    
    23   11   12 ar   
    24   11   71 1    
    25   12   13 ar   
    26   12   82 1    
    27   13   14 ar   
    28   13   15 1    
    29   14   83 1    
    30   15   16 1    
    31   15   84 1    
    32   15   85 1    
    33   16   17 1    
    34   17   18 1    
    35   17   86 1    
    36   17   87 1    
    37   18   19 1    
    38   18   37 1    
    39   18   88 1    
    40   19   20 am   BACKBONE|DICT|INTERRES
    41   19   89 1    
    42   20   21 2    
    43   20   22 1    
    44   22   23 1    
    45   22   24 1    
    46   22   90 1    
    47   23   91 1    
    48   23   92 1    
    49   23   93 1    
    50   24   25 am   BACKBONE|DICT|INTERRES
    51   24   94 1    
    52   25   26 2    
    53   25   27 1    
    54   27   28 1    
    55   27   29 1    
    56   27   95 1    
    57   28   96 1    
    58   28   97 1    
    59   28   98 1    
    60   29   30 am   BACKBONE|DICT|INTERRES
    61   29   99 1    
    62   30   31 2    
    63   30   32 1    
    64   32   33 1    
    65   32   34 1    
    66   32  100 1    
    67   33  101 1    
    68   33  102 1    
    69   33  103 1    
    70   34   35 am   BACKBONE|DICT|INTERRES
    71   34  104 1    
    72   35   36 2    
    73   37   38 2    
    74   37   39 am   BACKBONE|DICT|INTERRES
    75   39   40 1    
    76   39  105 1    
    77   40   41 1    
    78   40   42 1    
    79   40  106 1    
    80   41  107 1    
    81   41  108 1    
    82   41  109 1    
    83   42   43 2    
    84   42   44 am   BACKBONE|DICT|INTERRES
    85   44   45 1    
    86   44  110 1    
    87   45   46 1    
    88   45   47 1    
    89   45  111 1    
    90   46  112 1    
    91   46  113 1    
    92   46  114 1    
    93   47   48 2    
    94   47   49 am   BACKBONE|DICT|INTERRES
    95   49   50 1    
    96   49  115 1    
    97   50   51 1    
    98   50   52 1    
    99   50  116 1    
   100   51  117 1    
   101   51  118 1    
   102   51  119 1    
   103   52   53 2    
   104   52   54 am   BACKBONE|DICT|INTERRES
   105   54   55 1    
   106   54  120 1    
   107   55   56 1    
   108   55   57 1    
   109   55  121 1    
   110   56  122 1    
   111   56  123 1    
   112   56  124 1    
   113   57   58 2    
   114   57   59 am   BACKBONE|DICT|INTERRES
   115   59   60 1    
   116   59  125 1    
   117   60   61 1    
   118   60   62 1    
   119   60  126 1    
   120   61  127 1    
   121   61  128 1    
   122   61  129 1    
   123   62   63 2    
   124   62   64 am   BACKBONE|DICT|INTERRES
   125   64   65 1    
   126   64  130 1    
   127   65   66 1    
   128   65   69 1    
   129   65  131 1    
   130   66   67 am   BACKBONE|DICT|INTERRES
   131   66   68 2    
   132   67  132 1    
   133   67  133 1    
   134   69   70 1    
   135   69  134 1    
   136   69  135 1    
   137   70   71 1    
   138   71  136 1    
   139   71  137 1    
@<TRIPOS>SUBSTRUCTURE
     1 UNK         1 GROUP             0       ****    0 ROOT    
