@<TRIPOS>MOLECULE
3R136
137   139    1
SMALL
USER_CHARGES


@<TRIPOS>ATOM
      1 CA         31.4002   20.6200   -3.8261 C.3       0 UNK        -0.1979 
      2 C          31.4604   21.9930   -3.1727 C.2       0 UNK         0.4864 
      3 O          32.3535   22.7812   -3.4878 O.2       0 UNK        -0.5359 
      4 N          30.5226   22.2818   -2.2609 N.am      1 UNK        -0.4318 
      5 CA         30.3847   23.5753   -1.5843 C.3       1 UNK         0.0824 
      6 C6         29.5065   23.4489   -0.3129 C.3       12 UNK        -0.0944 
      7 S7         30.0105   24.6044    1.0071 S.3       12 UNK        -0.2672 
      8 C8         31.0623   23.5398    2.0447 C.3       12 UNK         0.0333 
      9 C9         30.8964   23.8630    3.5212 C.ar      12 UNK        -0.0807 
     10 C10        31.8201   24.6795    4.1786 C.ar      12 UNK        -0.0894 
     11 C11        31.6966   24.9336    5.5480 C.ar      12 UNK        -0.0804 
     12 C12        30.6269   24.3783    6.2574 C.ar      12 UNK        -0.0824 
     13 C13        29.6873   23.5717    5.6068 C.ar      12 UNK        -0.0762 
     14 C14        29.8316   23.3130    4.2404 C.ar      12 UNK        -0.0782 
     15 C15        28.5242   22.9638    6.3779 C.3       12 UNK         0.0230 
     16 S16        26.9244   23.6713    5.8701 S.3       12 UNK        -0.2608 
     17 C17        27.0939   25.4031    6.4193 C.3       12 UNK        -0.0989 
     18 CA         27.4359   26.3688    5.2570 C.3       5 UNK         0.0716 
     19 N          26.4360   26.3218    4.1841 N.am      5 UNK        -0.4135 
     20 C          26.4460   27.0619    3.0677 C.2       4 UNK         0.5031 
     21 O          27.3227   27.8893    2.7968 O.2       4 UNK        -0.5229 
     22 CA         25.2420   26.8725    2.1250 C.3       4 UNK         0.0329 
     23 CB         23.9873   27.5488    2.7048 C.3       4 UNK        -0.2001 
     24 N          25.5023   27.4249    0.7940 N.am      4 UNK        -0.4303 
     25 C          26.3281   26.8753   -0.1045 C.2       3 UNK         0.5044 
     26 O          26.8405   25.7628    0.0334 O.2       3 UNK        -0.5152 
     27 CA         26.6454   27.6989   -1.3638 C.3       3 UNK         0.0319 
     28 CB         26.5814   29.2265   -1.1315 C.3       3 UNK        -0.2001 
     29 N          27.9703   27.2987   -1.8308 N.am      3 UNK        -0.4354 
     30 C          28.4990   27.5369   -3.0359 C.2       2 UNK         0.4964 
     31 O          27.9208   28.1592   -3.9276 O.2       2 UNK        -0.5047 
     32 CA         29.9201   27.0031   -3.2985 C.3       2 UNK         0.0288 
     33 CB         30.9521   28.1347   -3.1559 C.3       2 UNK        -0.2113 
     34 N          30.3081   25.8823   -2.4331 N.am      2 UNK        -0.4145 
     35 C          29.8303   24.6364   -2.5592 C.2       1 UNK         0.5006 
     36 O          28.9807   24.3123   -3.3944 O.2       1 UNK        -0.5103 
     37 C          27.6100   27.8049    5.7900 C.2       5 UNK         0.5055 
     38 O          26.6367   28.3980    6.2595 O.2       5 UNK        -0.5220 
     39 N          28.8326   28.3350    5.6625 N.am      6 UNK        -0.4450 
     40 CA         29.2738   29.6924    6.0065 C.3       6 UNK         0.0367 
     41 CB         29.0601   29.9999    7.5027 C.3       6 UNK        -0.1929 
     42 C          28.7380   30.8197    5.0987 C.2       6 UNK         0.5070 
     43 O          29.1765   31.9599    5.2576 O.2       6 UNK        -0.5237 
     44 N          27.8474   30.5078    4.1464 N.am      7 UNK        -0.4739 
     45 CA         27.4582   31.4104    3.0574 C.3       7 UNK         0.0276 
     46 CB         26.0210   31.0952    2.6133 C.3       7 UNK        -0.1927 
     47 C          28.4299   31.2846    1.8714 C.2       7 UNK         0.5013 
     48 O          28.6163   32.2515    1.1313 O.2       7 UNK        -0.5193 
     49 N          29.0256   30.0937    1.7207 N.am      8 UNK        -0.4253 
     50 CA         30.0937   29.7645    0.7796 C.3       8 UNK         0.0242 
     51 CB         30.3283   28.2451    0.8569 C.3       8 UNK        -0.2000 
     52 C          31.4029   30.5208    1.0768 C.2       8 UNK         0.4948 
     53 O          31.5752   31.0777    2.1635 O.2       8 UNK        -0.5275 
     54 N          32.3334   30.4802    0.1113 N.am      9 UNK        -0.4246 
     55 CA         33.6912   31.0250    0.2406 C.3       9 UNK         0.0261 
     56 CB         34.4020   30.9534   -1.1208 C.3       9 UNK        -0.1959 
     57 C          34.5296   30.3235    1.3275 C.2       9 UNK         0.5033 
     58 O          35.3797   30.9658    1.9458 O.2       9 UNK        -0.5390 
     59 N          34.2578   29.0320    1.5565 N.am      10 UNK        -0.4215 
     60 CA         34.7506   28.2693    2.6996 C.3       10 UNK         0.0240 
     61 CB         34.6962   26.7694    2.3667 C.3       10 UNK        -0.1982 
     62 C          33.8889   28.5964    3.9289 C.2       10 UNK         0.4970 
     63 O          32.6664   28.4822    3.8441 O.2       10 UNK        -0.4916 
     64 N          34.5491   29.0082    5.0181 N.am      11 UNK        -0.4279 
     65 CA         34.0103   29.4341    6.3259 C.3       11 UNK         0.1003 
     66 C          33.0005   30.6240    6.3492 C.2       11 UNK         0.5709 
     67 N          32.5808   31.1858    5.2239 N.am      11 UNK        -0.7358 
     68 O          32.6246   31.0821    7.4254 O.2       11 UNK        -0.4999 
     69 C69        33.6055   28.2520    7.2580 C.3       12 UNK        -0.0954 
     70 S70        32.0696   27.3725    6.8089 S.3       12 UNK        -0.2268 
     71 C71        32.7421   25.7751    6.2644 C.3       12 UNK         0.0203 
     72 H72        30.5717   20.0230   -3.4454 H         1 UNK         0.0888 
     73 H73        31.2766   20.7230   -4.9038 H         1 UNK         0.0888 
     74 H74        32.3247   20.0745   -3.6391 H         1 UNK         0.0888 
     75 H75        29.7933   21.6089   -2.0731 H         1 UNK         0.3017 
     76 H76        31.3911   23.8779   -1.2852 H         1 UNK         0.0873 
     77 H77        28.4502   23.6132   -0.5364 H         1 UNK         0.0745 
     78 H78        29.5478   22.4337    0.0832 H         1 UNK         0.0745 
     79 H79        30.8253   22.4868    1.8900 H         1 UNK         0.0705 
     80 H80        32.1020   23.6628    1.7375 H         1 UNK         0.0705 
     81 H81        32.6472   25.1016    3.6277 H         1 UNK         0.1334 
     82 H82        30.5317   24.5743    7.3169 H         1 UNK         0.1417 
     83 H83        29.1104   22.6846    3.7352 H         1 UNK         0.1562 
     84 H84        28.6534   23.0951    7.4534 H         1 UNK         0.0748 
     85 H85        28.5042   21.8872    6.2030 H         1 UNK         0.0748 
     86 H86        27.8543   25.4586    7.2009 H         1 UNK         0.0940 
     87 H87        26.1558   25.6960    6.8955 H         1 UNK         0.0940 
     88 H88        28.3814   26.0480    4.8142 H         1 UNK         0.0703 
     89 H89        25.6744   25.6768    4.3326 H         1 UNK         0.3081 
     90 H90        25.0499   25.8020    2.0244 H         1 UNK         0.0719 
     91 H91        24.1323   28.6195    2.8509 H         1 UNK         0.0809 
     92 H92        23.1260   27.4138    2.0503 H         1 UNK         0.0809 
     93 H93        23.7215   27.1244    3.6738 H         1 UNK         0.0809 
     94 H94        25.1436   28.3495    0.6113 H         1 UNK         0.2990 
     95 H95        25.9137   27.4221   -2.1252 H         1 UNK         0.0690 
     96 H96        26.8915   29.7837   -2.0152 H         1 UNK         0.0788 
     97 H97        27.2253   29.5320   -0.3083 H         1 UNK         0.0788 
     98 H98        25.5677   29.5547   -0.9004 H         1 UNK         0.0788 
     99 H99        28.4695   26.7010   -1.1841 H         1 UNK         0.2993 
    100 H100       29.9444   26.6532   -4.3332 H         1 UNK         0.0949 
    101 H101       31.9599   27.7871   -3.3848 H         1 UNK         0.0767 
    102 H102       30.7296   28.9513   -3.8444 H         1 UNK         0.0767 
    103 H103       30.9573   28.5530   -2.1506 H         1 UNK         0.0767 
    104 H104       30.9988   26.0701   -1.7211 H         1 UNK         0.3013 
    105 H105       29.5524   27.7611    5.2421 H         1 UNK         0.3121 
    106 H106       30.3479   29.6772    5.8314 H         1 UNK         0.0774 
    107 H107       29.5421   30.9393    7.7766 H         1 UNK         0.0815 
    108 H108       28.0038   30.0929    7.7548 H         1 UNK         0.0815 
    109 H109       29.4933   29.2224    8.1319 H         1 UNK         0.0815 
    110 H110       27.5429   29.5444    4.0632 H         1 UNK         0.2987 
    111 H111       27.4873   32.4441    3.4091 H         1 UNK         0.0949 
    112 H112       25.9438   30.1025    2.1720 H         1 UNK         0.0806 
    113 H113       25.3243   31.1488    3.4500 H         1 UNK         0.0806 
    114 H114       25.6832   31.8098    1.8616 H         1 UNK         0.0806 
    115 H115       28.7400   29.3496    2.3462 H         1 UNK         0.3010 
    116 H116       29.7560   30.0313   -0.2238 H         1 UNK         0.0829 
    117 H117       29.4107   27.6919    0.6569 H         1 UNK         0.0813 
    118 H118       31.0737   27.9096    0.1370 H         1 UNK         0.0813 
    119 H119       30.6788   27.9453    1.8463 H         1 UNK         0.0813 
    120 H120       32.1136   30.0250   -0.7622 H         1 UNK         0.3038 
    121 H121       33.6011   32.0754    0.5259 H         1 UNK         0.0769 
    122 H122       33.8637   31.5201   -1.8809 H         1 UNK         0.0811 
    123 H123       34.5014   29.9260   -1.4734 H         1 UNK         0.0811 
    124 H124       35.4066   31.3743   -1.0576 H         1 UNK         0.0811 
    125 H125       33.5092   28.6094    1.0295 H         1 UNK         0.3204 
    126 H126       35.7903   28.5412    2.8953 H         1 UNK         0.0748 
    127 H127       35.3649   26.5246    1.5412 H         1 UNK         0.0771 
    128 H128       35.0026   26.1661    3.2223 H         1 UNK         0.0771 
    129 H129       33.6907   26.4563    2.0833 H         1 UNK         0.0771 
    130 H130       35.5523   29.0930    4.9427 H         1 UNK         0.2980 
    131 H131       34.8890   29.8729    6.7999 H         1 UNK         0.0545 
    132 H132       32.7871   30.7646    4.3292 H         1 UNK         0.3459 
    133 H133       31.9266   31.9507    5.2725 H         1 UNK         0.3459 
    134 H134       33.4792   28.6166    8.2788 H         1 UNK         0.0616 
    135 H135       34.4274   27.5371    7.3153 H         1 UNK         0.0616 
    136 H136       33.1198   25.2300    7.1305 H         1 UNK         0.0634 
    137 H137       33.5979   25.9527    5.6113 H         1 UNK         0.0634 
@<TRIPOS>BOND
     1    1    2 1    
     2    1   72 1    
     3    1   73 1    
     4    1   74 1    
     5    2    3 2    
     6    2    4 am   BACKBONE|DICT|INTERRES
     7    4    5 1    
     8    4   75 1    
     9    5    6 1    
    10    5   35 1    
    11    5   76 1    
    12    6    7 1    
    13    6   77 1    
    14    6   78 1    
    15    7    8 1    
    16    8    9 1    
    17    8   79 1    
    18    8   80 1    
    19    9   10 ar   
    20    9   14 ar   
    21   10   11 ar   
    22   10   81 1    
    23   11   12 ar   
    24   11   71 1    
    25   12   13 ar   
    26   12   82 1    
    27   13   14 ar   
    28   13   15 1    
    29   14   83 1    
    30   15   16 1    
    31   15   84 1    
    32   15   85 1    
    33   16   17 1    
    34   17   18 1    
    35   17   86 1    
    36   17   87 1    
    37   18   19 1    
    38   18   37 1    
    39   18   88 1    
    40   19   20 am   BACKBONE|DICT|INTERRES
    41   19   89 1    
    42   20   21 2    
    43   20   22 1    
    44   22   23 1    
    45   22   24 1    
    46   22   90 1    
    47   23   91 1    
    48   23   92 1    
    49   23   93 1    
    50   24   25 am   BACKBONE|DICT|INTERRES
    51   24   94 1    
    52   25   26 2    
    53   25   27 1    
    54   27   28 1    
    55   27   29 1    
    56   27   95 1    
    57   28   96 1    
    58   28   97 1    
    59   28   98 1    
    60   29   30 am   BACKBONE|DICT|INTERRES
    61   29   99 1    
    62   30   31 2    
    63   30   32 1    
    64   32   33 1    
    65   32   34 1    
    66   32  100 1    
    67   33  101 1    
    68   33  102 1    
    69   33  103 1    
    70   34   35 am   BACKBONE|DICT|INTERRES
    71   34  104 1    
    72   35   36 2    
    73   37   38 2    
    74   37   39 am   BACKBONE|DICT|INTERRES
    75   39   40 1    
    76   39  105 1    
    77   40   41 1    
    78   40   42 1    
    79   40  106 1    
    80   41  107 1    
    81   41  108 1    
    82   41  109 1    
    83   42   43 2    
    84   42   44 am   BACKBONE|DICT|INTERRES
    85   44   45 1    
    86   44  110 1    
    87   45   46 1    
    88   45   47 1    
    89   45  111 1    
    90   46  112 1    
    91   46  113 1    
    92   46  114 1    
    93   47   48 2    
    94   47   49 am   BACKBONE|DICT|INTERRES
    95   49   50 1    
    96   49  115 1    
    97   50   51 1    
    98   50   52 1    
    99   50  116 1    
   100   51  117 1    
   101   51  118 1    
   102   51  119 1    
   103   52   53 2    
   104   52   54 am   BACKBONE|DICT|INTERRES
   105   54   55 1    
   106   54  120 1    
   107   55   56 1    
   108   55   57 1    
   109   55  121 1    
   110   56  122 1    
   111   56  123 1    
   112   56  124 1    
   113   57   58 2    
   114   57   59 am   BACKBONE|DICT|INTERRES
   115   59   60 1    
   116   59  125 1    
   117   60   61 1    
   118   60   62 1    
   119   60  126 1    
   120   61  127 1    
   121   61  128 1    
   122   61  129 1    
   123   62   63 2    
   124   62   64 am   BACKBONE|DICT|INTERRES
   125   64   65 1    
   126   64  130 1    
   127   65   66 1    
   128   65   69 1    
   129   65  131 1    
   130   66   67 am   BACKBONE|DICT|INTERRES
   131   66   68 2    
   132   67  132 1    
   133   67  133 1    
   134   69   70 1    
   135   69  134 1    
   136   69  135 1    
   137   70   71 1    
   138   71  136 1    
   139   71  137 1    
@<TRIPOS>SUBSTRUCTURE
     1 UNK         1 GROUP             0       ****    0 ROOT    
