@<TRIPOS>MOLECULE
3R136
137   139    1
SMALL
USER_CHARGES


@<TRIPOS>ATOM
      1 CA         27.8182   18.5451   -3.2510 C.3       0 UNK        -0.1979 
      2 C          28.3993   19.8856   -2.8246 C.2       0 UNK         0.4864 
      3 O          28.8683   20.6428   -3.6761 O.2       0 UNK        -0.5359 
      4 N          28.3757   20.1728   -1.5167 N.am      1 UNK        -0.4318 
      5 CA         28.8266   21.4300   -0.9164 C.3       1 UNK         0.0824 
      6 C6         29.7503   21.1667    0.3054 C.3       12 UNK        -0.0944 
      7 S7         30.6488   22.6663    0.8279 S.3       12 UNK        -0.2672 
      8 C8         31.2473   22.1874    2.4781 C.3       12 UNK         0.0333 
      9 C9         31.2762   23.3925    3.4051 C.ar      12 UNK        -0.0807 
     10 C10        32.2418   24.3872    3.2331 C.ar      12 UNK        -0.0894 
     11 C11        32.2474   25.5189    4.0525 C.ar      12 UNK        -0.0804 
     12 C12        31.3028   25.6363    5.0761 C.ar      12 UNK        -0.0824 
     13 C13        30.3322   24.6461    5.2595 C.ar      12 UNK        -0.0762 
     14 C14        30.3245   23.5269    4.4201 C.ar      12 UNK        -0.0782 
     15 C15        29.2721   24.7861    6.3468 C.3       12 UNK         0.0230 
     16 S16        28.2706   26.3062    6.1966 S.3       12 UNK        -0.2608 
     17 C17        27.8411   26.3432    4.4221 C.3       12 UNK        -0.0989 
     18 CA         28.5368   27.5362    3.7087 C.3       5 UNK         0.0716 
     19 N          29.0704   27.1819    2.3936 N.am      5 UNK        -0.4135 
     20 C          30.0008   27.8890    1.7356 C.2       4 UNK         0.5031 
     21 O          30.5952   28.8552    2.2149 O.2       4 UNK        -0.5229 
     22 CA         30.3078   27.4677    0.2874 C.3       4 UNK         0.0329 
     23 CB         31.5263   26.5351    0.2417 C.3       4 UNK        -0.2001 
     24 N          29.1711   26.8238   -0.3784 N.am      4 UNK        -0.4303 
     25 C          28.0458   27.4645   -0.7276 C.2       3 UNK         0.5044 
     26 O          27.8673   28.6694   -0.5589 O.2       3 UNK        -0.5152 
     27 CA         26.9068   26.6087   -1.3079 C.3       3 UNK         0.0319 
     28 CB         27.1087   26.3894   -2.8150 C.3       3 UNK        -0.2001 
     29 N          26.7451   25.3119   -0.6428 N.am      3 UNK        -0.4354 
     30 C          26.5100   25.1229    0.6623 C.2       2 UNK         0.4964 
     31 O          26.4226   26.0424    1.4767 O.2       2 UNK        -0.5047 
     32 CA         26.4017   23.6724    1.1634 C.3       2 UNK         0.0288 
     33 CB         24.9778   23.1175    0.9668 C.3       2 UNK        -0.2113 
     34 N          27.4279   22.7687    0.6193 N.am      2 UNK        -0.4145 
     35 C          27.5900   22.3144   -0.6335 C.2       1 UNK         0.5006 
     36 O          26.8286   22.5985   -1.5609 O.2       1 UNK        -0.5103 
     37 C          27.6030   28.7528    3.5883 C.2       5 UNK         0.5055 
     38 O          27.7836   29.7339    4.3120 O.2       5 UNK        -0.5220 
     39 N          26.6533   28.6711    2.6417 N.am      6 UNK        -0.4450 
     40 CA         25.6779   29.7144    2.3109 C.3       6 UNK         0.0367 
     41 CB         24.7314   29.2047    1.2134 C.3       6 UNK        -0.1929 
     42 C          26.3231   31.0474    1.8968 C.2       6 UNK         0.5070 
     43 O          25.8168   32.1047    2.2721 O.2       6 UNK        -0.5237 
     44 N          27.4682   30.9832    1.2042 N.am      7 UNK        -0.4739 
     45 CA         28.3444   32.1105    0.8642 C.3       7 UNK         0.0276 
     46 CB         29.2636   31.6805   -0.2944 C.3       7 UNK        -0.1927 
     47 C          29.1410   32.6640    2.0709 C.2       7 UNK         0.5013 
     48 O          30.3206   32.9877    1.9259 O.2       7 UNK        -0.5193 
     49 N          28.4798   32.7694    3.2334 N.am      8 UNK        -0.4253 
     50 CA         28.9670   33.2769    4.5210 C.3       8 UNK         0.0242 
     51 CB         29.1481   34.8085    4.4518 C.3       8 UNK        -0.2000 
     52 C          30.2221   32.5470    5.0417 C.2       8 UNK         0.4948 
     53 O          31.1330   33.2019    5.5524 O.2       8 UNK        -0.5275 
     54 N          30.2379   31.2102    4.9054 N.am      9 UNK        -0.4246 
     55 CA         31.3401   30.2966    5.2378 C.3       9 UNK         0.0261 
     56 CB         31.5157   30.1809    6.7659 C.3       9 UNK        -0.1959 
     57 C          32.6424   30.6802    4.5098 C.2       9 UNK         0.5033 
     58 O          33.6184   31.0844    5.1459 O.2       9 UNK        -0.5390 
     59 N          32.6229   30.5507    3.1762 N.am      10 UNK        -0.4215 
     60 CA         33.6772   30.9811    2.2477 C.3       10 UNK         0.0240 
     61 CB         33.2142   30.7022    0.8085 C.3       10 UNK        -0.1982 
     62 C          35.0656   30.3600    2.4950 C.2       10 UNK         0.4970 
     63 O          36.0718   30.9616    2.1178 O.2       10 UNK        -0.4916 
     64 N          35.0927   29.1823    3.1265 N.am      11 UNK        -0.4279 
     65 CA         36.2968   28.4901    3.6009 C.3       11 UNK         0.1003 
     66 C          36.9437   29.1036    4.8789 C.2       11 UNK         0.5709 
     67 N          36.3130   30.0479    5.5686 N.am      11 UNK        -0.7358 
     68 O          38.0547   28.7241    5.2421 O.2       11 UNK        -0.4999 
     69 C69        36.0480   26.9631    3.7322 C.3       12 UNK        -0.0954 
     70 S70        34.6974   26.5070    4.8792 S.3       12 UNK        -0.2268 
     71 C71        33.2427   26.6343    3.7950 C.3       12 UNK         0.0203 
     72 H72        26.9862   18.6989   -3.9379 H         1 UNK         0.0888 
     73 H73        28.5769   17.9524   -3.7615 H         1 UNK         0.0888 
     74 H74        27.4535   17.9685   -2.4011 H         1 UNK         0.0888 
     75 H75        27.9473   19.5158   -0.8795 H         1 UNK         0.3017 
     76 H76        29.4194   21.9820   -1.6491 H         1 UNK         0.0873 
     77 H77        29.1914   20.7401    1.1405 H         1 UNK         0.0745 
     78 H78        30.5030   20.4218    0.0410 H         1 UNK         0.0745 
     79 H79        30.6157   21.4033    2.8979 H         1 UNK         0.0705 
     80 H80        32.2478   21.7617    2.3891 H         1 UNK         0.0705 
     81 H81        32.9697   24.2925    2.4387 H         1 UNK         0.1334 
     82 H82        31.3044   26.5104    5.7130 H         1 UNK         0.1417 
     83 H83        29.5709   22.7622    4.5512 H         1 UNK         0.1562 
     84 H84        29.7605   24.7808    7.3221 H         1 UNK         0.0748 
     85 H85        28.5964   23.9295    6.3395 H         1 UNK         0.0748 
     86 H86        26.7535   26.3758    4.3265 H         1 UNK         0.0940 
     87 H87        28.1260   25.3965    3.9629 H         1 UNK         0.0940 
     88 H88        29.3930   27.8465    4.3089 H         1 UNK         0.0703 
     89 H89        28.5951   26.4376    1.9047 H         1 UNK         0.3081 
     90 H90        30.5551   28.3741   -0.2696 H         1 UNK         0.0719 
     91 H91        32.4016   27.0185    0.6761 H         1 UNK         0.0809 
     92 H92        31.7837   26.2657   -0.7827 H         1 UNK         0.0809 
     93 H93        31.3492   25.6143    0.7968 H         1 UNK         0.0809 
     94 H94        29.2400   25.8325   -0.5568 H         1 UNK         0.2990 
     95 H95        25.9768   27.1625   -1.1670 H         1 UNK         0.0690 
     96 H96        26.2571   25.8722   -3.2575 H         1 UNK         0.0788 
     97 H97        28.0029   25.8002   -3.0227 H         1 UNK         0.0788 
     98 H98        27.2151   27.3413   -3.3376 H         1 UNK         0.0788 
     99 H99        26.7785   24.4813   -1.2281 H         1 UNK         0.2993 
    100 H100       26.5866   23.7077    2.2385 H         1 UNK         0.0949 
    101 H101       24.8849   22.1118    1.3769 H         1 UNK         0.0767 
    102 H102       24.2448   23.7442    1.4767 H         1 UNK         0.0767 
    103 H103       24.6916   23.0788   -0.0845 H         1 UNK         0.0767 
    104 H104       28.1584   22.5207    1.2738 H         1 UNK         0.3013 
    105 H105       26.5778   27.8017    2.1179 H         1 UNK         0.3121 
    106 H106       25.0891   29.9011    3.2112 H         1 UNK         0.0774 
    107 H107       25.2623   29.0136    0.2809 H         1 UNK         0.0815 
    108 H108       23.9530   29.9383    0.9997 H         1 UNK         0.0815 
    109 H109       24.2346   28.2814    1.5121 H         1 UNK         0.0815 
    110 H110       27.7717   30.0701    0.8794 H         1 UNK         0.2987 
    111 H111       27.7180   32.9298    0.5051 H         1 UNK         0.0949 
    112 H112       29.9198   30.8616    0.0022 H         1 UNK         0.0806 
    113 H113       28.6854   31.3482   -1.1568 H         1 UNK         0.0806 
    114 H114       29.8947   32.5048   -0.6289 H         1 UNK         0.0806 
    115 H115       27.5064   32.4804    3.2174 H         1 UNK         0.3010 
    116 H116       28.1784   33.0702    5.2462 H         1 UNK         0.0829 
    117 H117       29.9515   35.0878    3.7691 H         1 UNK         0.0813 
    118 H118       28.2359   35.3016    4.1161 H         1 UNK         0.0813 
    119 H119       29.3946   35.2199    5.4314 H         1 UNK         0.0813 
    120 H120       29.4114   30.7711    4.5059 H         1 UNK         0.3038 
    121 H121       31.0550   29.3116    4.8705 H         1 UNK         0.0769 
    122 H122       32.2943   29.4582    7.0132 H         1 UNK         0.0811 
    123 H123       31.8012   31.1321    7.2163 H         1 UNK         0.0811 
    124 H124       30.5962   29.8448    7.2449 H         1 UNK         0.0811 
    125 H125       31.7883   30.1450    2.7528 H         1 UNK         0.3204 
    126 H126       33.7853   32.0608    2.3683 H         1 UNK         0.0748 
    127 H127       33.9654   31.0198    0.0840 H         1 UNK         0.0771 
    128 H128       33.0263   29.6405    0.6436 H         1 UNK         0.0771 
    129 H129       32.2969   31.2448    0.5795 H         1 UNK         0.0771 
    130 H130       34.2170   28.7866    3.4270 H         1 UNK         0.2980 
    131 H131       37.0530   28.6101    2.8228 H         1 UNK         0.0545 
    132 H132       35.3890   30.3753    5.2997 H         1 UNK         0.3459 
    133 H133       36.7565   30.4329    6.3866 H         1 UNK         0.3459 
    134 H134       35.8391   26.5379    2.7496 H         1 UNK         0.0616 
    135 H135       36.9566   26.4603    4.0682 H         1 UNK         0.0616 
    136 H136       32.7577   27.5975    3.9542 H         1 UNK         0.0634 
    137 H137       33.5474   26.6165    2.7484 H         1 UNK         0.0634 
@<TRIPOS>BOND
     1    1    2 1    
     2    1   72 1    
     3    1   73 1    
     4    1   74 1    
     5    2    3 2    
     6    2    4 am   BACKBONE|DICT|INTERRES
     7    4    5 1    
     8    4   75 1    
     9    5    6 1    
    10    5   35 1    
    11    5   76 1    
    12    6    7 1    
    13    6   77 1    
    14    6   78 1    
    15    7    8 1    
    16    8    9 1    
    17    8   79 1    
    18    8   80 1    
    19    9   10 ar   
    20    9   14 ar   
    21   10   11 ar   
    22   10   81 1    
    23   11   12 ar   
    24   11   71 1    
    25   12   13 ar   
    26   12   82 1    
    27   13   14 ar   
    28   13   15 1    
    29   14   83 1    
    30   15   16 1    
    31   15   84 1    
    32   15   85 1    
    33   16   17 1    
    34   17   18 1    
    35   17   86 1    
    36   17   87 1    
    37   18   19 1    
    38   18   37 1    
    39   18   88 1    
    40   19   20 am   BACKBONE|DICT|INTERRES
    41   19   89 1    
    42   20   21 2    
    43   20   22 1    
    44   22   23 1    
    45   22   24 1    
    46   22   90 1    
    47   23   91 1    
    48   23   92 1    
    49   23   93 1    
    50   24   25 am   BACKBONE|DICT|INTERRES
    51   24   94 1    
    52   25   26 2    
    53   25   27 1    
    54   27   28 1    
    55   27   29 1    
    56   27   95 1    
    57   28   96 1    
    58   28   97 1    
    59   28   98 1    
    60   29   30 am   BACKBONE|DICT|INTERRES
    61   29   99 1    
    62   30   31 2    
    63   30   32 1    
    64   32   33 1    
    65   32   34 1    
    66   32  100 1    
    67   33  101 1    
    68   33  102 1    
    69   33  103 1    
    70   34   35 am   BACKBONE|DICT|INTERRES
    71   34  104 1    
    72   35   36 2    
    73   37   38 2    
    74   37   39 am   BACKBONE|DICT|INTERRES
    75   39   40 1    
    76   39  105 1    
    77   40   41 1    
    78   40   42 1    
    79   40  106 1    
    80   41  107 1    
    81   41  108 1    
    82   41  109 1    
    83   42   43 2    
    84   42   44 am   BACKBONE|DICT|INTERRES
    85   44   45 1    
    86   44  110 1    
    87   45   46 1    
    88   45   47 1    
    89   45  111 1    
    90   46  112 1    
    91   46  113 1    
    92   46  114 1    
    93   47   48 2    
    94   47   49 am   BACKBONE|DICT|INTERRES
    95   49   50 1    
    96   49  115 1    
    97   50   51 1    
    98   50   52 1    
    99   50  116 1    
   100   51  117 1    
   101   51  118 1    
   102   51  119 1    
   103   52   53 2    
   104   52   54 am   BACKBONE|DICT|INTERRES
   105   54   55 1    
   106   54  120 1    
   107   55   56 1    
   108   55   57 1    
   109   55  121 1    
   110   56  122 1    
   111   56  123 1    
   112   56  124 1    
   113   57   58 2    
   114   57   59 am   BACKBONE|DICT|INTERRES
   115   59   60 1    
   116   59  125 1    
   117   60   61 1    
   118   60   62 1    
   119   60  126 1    
   120   61  127 1    
   121   61  128 1    
   122   61  129 1    
   123   62   63 2    
   124   62   64 am   BACKBONE|DICT|INTERRES
   125   64   65 1    
   126   64  130 1    
   127   65   66 1    
   128   65   69 1    
   129   65  131 1    
   130   66   67 am   BACKBONE|DICT|INTERRES
   131   66   68 2    
   132   67  132 1    
   133   67  133 1    
   134   69   70 1    
   135   69  134 1    
   136   69  135 1    
   137   70   71 1    
   138   71  136 1    
   139   71  137 1    
@<TRIPOS>SUBSTRUCTURE
     1 UNK         1 GROUP             0       ****    0 ROOT    
