@<TRIPOS>MOLECULE
3R136
137   139    1
SMALL
USER_CHARGES


@<TRIPOS>ATOM
      1 CA         28.2481   19.5926    1.9900 C.3       0 UNK        -0.1979 
      2 C          28.0702   20.7442    1.0131 C.2       0 UNK         0.4864 
      3 O          27.0768   21.4677    1.0988 O.2       0 UNK        -0.5359 
      4 N          29.0187   20.9110    0.0757 N.am      1 UNK        -0.4318 
      5 CA         29.0898   21.9994   -0.9175 C.3       1 UNK         0.0824 
      6 C6         29.4011   23.3809   -0.2644 C.3       12 UNK        -0.0944 
      7 S7         31.1082   23.4872    0.3763 S.3       12 UNK        -0.2672 
      8 C8         30.9662   22.9113    2.0983 C.3       12 UNK         0.0333 
      9 C9         30.4126   23.9701    3.0400 C.ar      12 UNK        -0.0807 
     10 C10        31.2848   24.8432    3.6987 C.ar      12 UNK        -0.0894 
     11 C11        30.7989   25.7553    4.6399 C.ar      12 UNK        -0.0804 
     12 C12        29.4255   25.8170    4.8921 C.ar      12 UNK        -0.0824 
     13 C13        28.5422   24.9544    4.2350 C.ar      12 UNK        -0.0762 
     14 C14        29.0424   24.0281    3.3146 C.ar      12 UNK        -0.0782 
     15 C15        27.0547   24.9896    4.5622 C.3       12 UNK         0.0230 
     16 S16        26.0267   25.4599    3.1349 S.3       12 UNK        -0.2608 
     17 C17        26.6926   27.1065    2.7114 C.3       12 UNK        -0.0989 
     18 CA         27.4060   27.0902    1.3386 C.3       5 UNK         0.0716 
     19 N          26.4826   26.7088    0.2680 N.am      5 UNK        -0.4135 
     20 C          26.7902   26.5203   -1.0204 C.2       4 UNK         0.5031 
     21 O          27.9224   26.6507   -1.4897 O.2       4 UNK        -0.5229 
     22 CA         25.6273   26.0515   -1.9089 C.3       4 UNK         0.0329 
     23 CB         25.9896   26.0121   -3.4053 C.3       4 UNK        -0.2001 
     24 N          25.2152   24.7168   -1.4763 N.am      4 UNK        -0.4303 
     25 C          24.2685   24.4585   -0.5620 C.2       3 UNK         0.5044 
     26 O          23.5944   25.3448   -0.0346 O.2       3 UNK        -0.5152 
     27 CA         24.0621   22.9966   -0.1081 C.3       3 UNK         0.0319 
     28 CB         22.5705   22.6026   -0.0677 C.3       3 UNK        -0.2001 
     29 N          24.8634   22.0097   -0.8436 N.am      3 UNK        -0.4354 
     30 C          24.7556   21.6505   -2.1347 C.2       2 UNK         0.4964 
     31 O          23.8568   22.0406   -2.8811 O.2       2 UNK        -0.5047 
     32 CA         25.8696   20.7354   -2.6958 C.3       2 UNK         0.0288 
     33 CB         26.0446   20.8833   -4.2228 C.3       2 UNK        -0.2113 
     34 N          27.1629   20.9021   -2.0137 N.am      2 UNK        -0.4145 
     35 C          27.8541   22.0446   -1.8523 C.2       1 UNK         0.5006 
     36 O          27.5195   23.1073   -2.3755 O.2       1 UNK        -0.5103 
     37 C          28.0700   28.4506    1.0535 C.2       5 UNK         0.5055 
     38 O          27.3913   29.3836    0.6132 O.2       5 UNK        -0.5220 
     39 N          29.3794   28.5337    1.3141 N.am      6 UNK        -0.4450 
     40 CA         30.1840   29.7396    1.1234 C.3       6 UNK         0.0367 
     41 CB         31.6616   29.3310    0.9951 C.3       6 UNK        -0.1929 
     42 C          29.9783   30.7561    2.2618 C.2       6 UNK         0.5070 
     43 O          29.3671   30.4399    3.2860 O.2       6 UNK        -0.5237 
     44 N          30.5010   31.9706    2.0547 N.am      7 UNK        -0.4739 
     45 CA         30.5102   33.0513    3.0427 C.3       7 UNK         0.0276 
     46 CB         30.9149   34.3579    2.3397 C.3       7 UNK        -0.1927 
     47 C          31.4742   32.7570    4.2039 C.2       7 UNK         0.5013 
     48 O          32.4483   32.0217    4.0230 O.2       7 UNK        -0.5193 
     49 N          31.2334   33.3999    5.3553 N.am      8 UNK        -0.4253 
     50 CA         32.0396   33.2811    6.5785 C.3       8 UNK         0.0242 
     51 CB         31.4338   34.1664    7.6791 C.3       8 UNK        -0.2000 
     52 C          33.5335   33.6054    6.3913 C.2       8 UNK         0.4948 
     53 O          34.3701   32.9889    7.0496 O.2       8 UNK        -0.5275 
     54 N          33.8443   34.5252    5.4670 N.am      9 UNK        -0.4246 
     55 CA         35.2078   34.8747    5.0603 C.3       9 UNK         0.0261 
     56 CB         35.1623   36.1346    4.1802 C.3       9 UNK        -0.1959 
     57 C          35.9527   33.7381    4.3318 C.2       9 UNK         0.5033 
     58 O          37.1838   33.7148    4.3731 O.2       9 UNK        -0.5390 
     59 N          35.2123   32.8297    3.6810 N.am      10 UNK        -0.4215 
     60 CA         35.7497   31.6467    3.0094 C.3       10 UNK         0.0240 
     61 CB         34.9469   31.3745    1.7274 C.3       10 UNK        -0.1982 
     62 C          35.7225   30.4267    3.9412 C.2       10 UNK         0.4970 
     63 O          36.7061   29.6866    3.9854 O.2       10 UNK        -0.4916 
     64 N          34.6111   30.2405    4.6674 N.am      11 UNK        -0.4279 
     65 CA         34.4360   29.1702    5.6613 C.3       11 UNK         0.1003 
     66 C          35.3753   29.2844    6.8956 C.2       11 UNK         0.5709 
     67 N          35.7197   30.4781    7.3617 N.am      11 UNK        -0.7358 
     68 O          35.8040   28.2671    7.4353 O.2       11 UNK        -0.4999 
     69 C69        32.9570   29.0377    6.1055 C.3       12 UNK        -0.0954 
     70 S70        31.8987   28.3078    4.8114 S.3       12 UNK        -0.2268 
     71 C71        31.7601   26.6120    5.4503 C.3       12 UNK         0.0203 
     72 H72        29.1619   19.0308    1.7978 H         1 UNK         0.0888 
     73 H73        27.4049   18.9062    1.9182 H         1 UNK         0.0888 
     74 H74        28.2921   19.9729    3.0102 H         1 UNK         0.0888 
     75 H75        29.7959   20.2647    0.0498 H         1 UNK         0.3017 
     76 H76        29.9218   21.7527   -1.5790 H         1 UNK         0.0873 
     77 H77        28.6807   23.6259    0.5157 H         1 UNK         0.0745 
     78 H78        29.3188   24.1852   -0.9977 H         1 UNK         0.0745 
     79 H79        30.3637   22.0069    2.1514 H         1 UNK         0.0705 
     80 H80        31.9603   22.6149    2.4365 H         1 UNK         0.0705 
     81 H81        32.3479   24.7837    3.5084 H         1 UNK         0.1334 
     82 H82        29.0508   26.5187    5.6251 H         1 UNK         0.1417 
     83 H83        28.3617   23.3435    2.8262 H         1 UNK         0.1562 
     84 H84        26.8515   25.6781    5.3840 H         1 UNK         0.0748 
     85 H85        26.7439   24.0027    4.9079 H         1 UNK         0.0748 
     86 H86        27.3722   27.4414    3.4977 H         1 UNK         0.0940 
     87 H87        25.8673   27.8214    2.7075 H         1 UNK         0.0940 
     88 H88        28.1896   26.3291    1.3655 H         1 UNK         0.0703 
     89 H89        25.5249   26.5499    0.5517 H         1 UNK         0.3081 
     90 H90        24.8045   26.7593   -1.7867 H         1 UNK         0.0719 
     91 H91        26.8256   25.3416   -3.6058 H         1 UNK         0.0809 
     92 H92        25.1442   25.6804   -4.0082 H         1 UNK         0.0809 
     93 H93        26.2750   27.0026   -3.7615 H         1 UNK         0.0809 
     94 H94        25.7931   23.9540   -1.8158 H         1 UNK         0.2990 
     95 H95        24.4348   22.9580    0.9169 H         1 UNK         0.0690 
     96 H96        22.4402   21.5747    0.2703 H         1 UNK         0.0788 
     97 H97        22.0959   22.6997   -1.0442 H         1 UNK         0.0788 
     98 H98        22.0178   23.2413    0.6224 H         1 UNK         0.0788 
     99 H99        25.6561   21.6525   -0.3160 H         1 UNK         0.2993 
    100 H100       25.5443   19.7132   -2.4964 H         1 UNK         0.0949 
    101 H101       25.1252   20.6267   -4.7506 H         1 UNK         0.0767 
    102 H102       26.3059   21.9046   -4.5026 H         1 UNK         0.0767 
    103 H103       26.8259   20.2225   -4.5982 H         1 UNK         0.0767 
    104 H104       27.5148   20.0811   -1.5409 H         1 UNK         0.3013 
    105 H105       29.8490   27.7428    1.7310 H         1 UNK         0.3121 
    106 H106       29.8768   30.2124    0.1877 H         1 UNK         0.0774 
    107 H107       31.7952   28.5417    0.2549 H         1 UNK         0.0815 
    108 H108       32.0708   28.9766    1.9412 H         1 UNK         0.0815 
    109 H109       32.2699   30.1739    0.6694 H         1 UNK         0.0815 
    110 H110       31.0106   32.1399    1.1999 H         1 UNK         0.2987 
    111 H111       29.5003   33.1586    3.4451 H         1 UNK         0.0949 
    112 H112       31.9243   34.3006    1.9293 H         1 UNK         0.0806 
    113 H113       30.2340   34.5957    1.5221 H         1 UNK         0.0806 
    114 H114       30.8914   35.2021    3.0301 H         1 UNK         0.0806 
    115 H115       30.4229   34.0003    5.4115 H         1 UNK         0.3010 
    116 H116       31.9753   32.2426    6.9073 H         1 UNK         0.0829 
    117 H117       30.4075   33.8754    7.9040 H         1 UNK         0.0813 
    118 H118       32.0022   34.0796    8.6065 H         1 UNK         0.0813 
    119 H119       31.4313   35.2198    7.3962 H         1 UNK         0.0813 
    120 H120       33.0899   34.9880    4.9817 H         1 UNK         0.3038 
    121 H121       35.7754   35.1084    5.9637 H         1 UNK         0.0769 
    122 H122       34.5889   35.9697    3.2670 H         1 UNK         0.0811 
    123 H123       36.1669   36.4390    3.8831 H         1 UNK         0.0811 
    124 H124       34.7160   36.9753    4.7117 H         1 UNK         0.0811 
    125 H125       34.2009   32.8792    3.7500 H         1 UNK         0.3204 
    126 H126       36.7879   31.8238    2.7199 H         1 UNK         0.0748 
    127 H127       35.0226   32.2083    1.0293 H         1 UNK         0.0771 
    128 H128       35.3161   30.4854    1.2145 H         1 UNK         0.0771 
    129 H129       33.8913   31.2144    1.9426 H         1 UNK         0.0771 
    130 H130       33.8203   30.8649    4.5331 H         1 UNK         0.2980 
    131 H131       34.7139   28.2363    5.1682 H         1 UNK         0.0545 
    132 H132       36.3347   30.5306    8.1573 H         1 UNK         0.3459 
    133 H133       35.3021   31.3299    6.9987 H         1 UNK         0.3459 
    134 H134       32.8704   28.4293    7.0078 H         1 UNK         0.0616 
    135 H135       32.5517   30.0146    6.3707 H         1 UNK         0.0616 
    136 H136       32.7522   26.1578    5.4683 H         1 UNK         0.0634 
    137 H137       31.4196   26.6438    6.4864 H         1 UNK         0.0634 
@<TRIPOS>BOND
     1    1    2 1    
     2    1   72 1    
     3    1   73 1    
     4    1   74 1    
     5    2    3 2    
     6    2    4 am   BACKBONE|DICT|INTERRES
     7    4    5 1    
     8    4   75 1    
     9    5    6 1    
    10    5   35 1    
    11    5   76 1    
    12    6    7 1    
    13    6   77 1    
    14    6   78 1    
    15    7    8 1    
    16    8    9 1    
    17    8   79 1    
    18    8   80 1    
    19    9   10 ar   
    20    9   14 ar   
    21   10   11 ar   
    22   10   81 1    
    23   11   12 ar   
    24   11   71 1    
    25   12   13 ar   
    26   12   82 1    
    27   13   14 ar   
    28   13   15 1    
    29   14   83 1    
    30   15   16 1    
    31   15   84 1    
    32   15   85 1    
    33   16   17 1    
    34   17   18 1    
    35   17   86 1    
    36   17   87 1    
    37   18   19 1    
    38   18   37 1    
    39   18   88 1    
    40   19   20 am   BACKBONE|DICT|INTERRES
    41   19   89 1    
    42   20   21 2    
    43   20   22 1    
    44   22   23 1    
    45   22   24 1    
    46   22   90 1    
    47   23   91 1    
    48   23   92 1    
    49   23   93 1    
    50   24   25 am   BACKBONE|DICT|INTERRES
    51   24   94 1    
    52   25   26 2    
    53   25   27 1    
    54   27   28 1    
    55   27   29 1    
    56   27   95 1    
    57   28   96 1    
    58   28   97 1    
    59   28   98 1    
    60   29   30 am   BACKBONE|DICT|INTERRES
    61   29   99 1    
    62   30   31 2    
    63   30   32 1    
    64   32   33 1    
    65   32   34 1    
    66   32  100 1    
    67   33  101 1    
    68   33  102 1    
    69   33  103 1    
    70   34   35 am   BACKBONE|DICT|INTERRES
    71   34  104 1    
    72   35   36 2    
    73   37   38 2    
    74   37   39 am   BACKBONE|DICT|INTERRES
    75   39   40 1    
    76   39  105 1    
    77   40   41 1    
    78   40   42 1    
    79   40  106 1    
    80   41  107 1    
    81   41  108 1    
    82   41  109 1    
    83   42   43 2    
    84   42   44 am   BACKBONE|DICT|INTERRES
    85   44   45 1    
    86   44  110 1    
    87   45   46 1    
    88   45   47 1    
    89   45  111 1    
    90   46  112 1    
    91   46  113 1    
    92   46  114 1    
    93   47   48 2    
    94   47   49 am   BACKBONE|DICT|INTERRES
    95   49   50 1    
    96   49  115 1    
    97   50   51 1    
    98   50   52 1    
    99   50  116 1    
   100   51  117 1    
   101   51  118 1    
   102   51  119 1    
   103   52   53 2    
   104   52   54 am   BACKBONE|DICT|INTERRES
   105   54   55 1    
   106   54  120 1    
   107   55   56 1    
   108   55   57 1    
   109   55  121 1    
   110   56  122 1    
   111   56  123 1    
   112   56  124 1    
   113   57   58 2    
   114   57   59 am   BACKBONE|DICT|INTERRES
   115   59   60 1    
   116   59  125 1    
   117   60   61 1    
   118   60   62 1    
   119   60  126 1    
   120   61  127 1    
   121   61  128 1    
   122   61  129 1    
   123   62   63 2    
   124   62   64 am   BACKBONE|DICT|INTERRES
   125   64   65 1    
   126   64  130 1    
   127   65   66 1    
   128   65   69 1    
   129   65  131 1    
   130   66   67 am   BACKBONE|DICT|INTERRES
   131   66   68 2    
   132   67  132 1    
   133   67  133 1    
   134   69   70 1    
   135   69  134 1    
   136   69  135 1    
   137   70   71 1    
   138   71  136 1    
   139   71  137 1    
@<TRIPOS>SUBSTRUCTURE
     1 UNK         1 GROUP             0       ****    0 ROOT    
