@<TRIPOS>MOLECULE
3R136
137   139    1
SMALL
USER_CHARGES


@<TRIPOS>ATOM
      1 CA         27.4330   20.4796    4.7077 C.3       0 UNK        -0.1979 
      2 C          27.2200   21.0383    3.3086 C.2       0 UNK         0.4864 
      3 O          26.4165   20.4945    2.5500 O.2       0 UNK        -0.5359 
      4 N          27.9387   22.1148    2.9631 N.am      1 UNK        -0.4318 
      5 CA         27.8428   22.8276    1.6835 C.3       1 UNK         0.0824 
      6 C6         29.0272   23.8050    1.4620 C.3       12 UNK        -0.0944 
      7 S7         29.3938   24.8685    2.9076 S.3       12 UNK        -0.2672 
      8 C8         31.2122   24.8020    2.9841 C.3       12 UNK         0.0333 
      9 C9         31.8426   25.8312    2.0577 C.ar      12 UNK        -0.0807 
     10 C10        32.3296   27.0358    2.5737 C.ar      12 UNK        -0.0894 
     11 C11        32.8999   27.9925    1.7279 C.ar      12 UNK        -0.0804 
     12 C12        32.9686   27.7420    0.3539 C.ar      12 UNK        -0.0824 
     13 C13        32.4865   26.5401   -0.1732 C.ar      12 UNK        -0.0762 
     14 C14        31.9382   25.5832    0.6857 C.ar      12 UNK        -0.0782 
     15 C15        32.5583   26.2722   -1.6699 C.3       12 UNK         0.0230 
     16 S16        31.2720   27.1746   -2.5911 S.3       12 UNK        -0.2608 
     17 C17        29.7445   26.4014   -1.9555 C.3       12 UNK        -0.0989 
     18 CA         28.4596   27.1139   -2.4552 C.3       5 UNK         0.0716 
     19 N          27.2910   26.2481   -2.3552 N.am      5 UNK        -0.4135 
     20 C          26.9010   25.3452   -3.2589 C.2       4 UNK         0.5031 
     21 O          27.5330   25.0984   -4.2873 O.2       4 UNK        -0.5229 
     22 CA         25.5946   24.5751   -2.9835 C.3       4 UNK         0.0329 
     23 CB         25.8800   23.0731   -2.8120 C.3       4 UNK        -0.2001 
     24 N          24.8393   25.0687   -1.8224 N.am      4 UNK        -0.4303 
     25 C          24.0740   26.1725   -1.8401 C.2       3 UNK         0.5044 
     26 O          23.9720   26.8992   -2.8294 O.2       3 UNK        -0.5152 
     27 CA         23.2661   26.5359   -0.5782 C.3       3 UNK         0.0319 
     28 CB         21.7566   26.4505   -0.8643 C.3       3 UNK        -0.2001 
     29 N          23.5652   25.6952    0.5822 N.am      3 UNK        -0.4354 
     30 C          24.5473   25.9206    1.4642 C.2       2 UNK         0.4964 
     31 O          25.3213   26.8743    1.3969 O.2       2 UNK        -0.5047 
     32 CA         24.7083   24.9061    2.6163 C.3       2 UNK         0.0288 
     33 CB         23.5474   23.8910    2.7353 C.3       2 UNK        -0.2113 
     34 N          25.9895   24.1944    2.5477 N.am      2 UNK        -0.4145 
     35 C          26.4799   23.5240    1.4930 C.2       1 UNK         0.5006 
     36 O          25.8974   23.4227    0.4120 O.2       1 UNK        -0.5103 
     37 C          28.1481   28.4003   -1.6697 C.2       5 UNK         0.5055 
     38 O          27.1434   28.4598   -0.9541 O.2       5 UNK        -0.5220 
     39 N          29.0263   29.4019   -1.7907 N.am      6 UNK        -0.4450 
     40 CA         29.0067   30.6397   -1.0104 C.3       6 UNK         0.0367 
     41 CB         29.7914   31.7235   -1.7729 C.3       6 UNK        -0.1929 
     42 C          29.5682   30.3832    0.4008 C.2       6 UNK         0.5070 
     43 O          30.6775   30.8187    0.7124 O.2       6 UNK        -0.5237 
     44 N          28.8055   29.6286    1.2019 N.am      7 UNK        -0.4739 
     45 CA         29.1565   29.1823    2.5498 C.3       7 UNK         0.0276 
     46 CB         28.0458   28.2593    3.0737 C.3       7 UNK        -0.1927 
     47 C          29.3934   30.3495    3.5221 C.2       7 UNK         0.5013 
     48 O          28.6153   31.3072    3.5311 O.2       7 UNK        -0.5193 
     49 N          30.4438   30.2293    4.3383 N.am      8 UNK        -0.4253 
     50 CA         30.8691   31.2021    5.3374 C.3       8 UNK         0.0242 
     51 CB         31.5716   32.3940    4.6576 C.3       8 UNK        -0.2000 
     52 C          31.8249   30.5001    6.3050 C.2       8 UNK         0.4948 
     53 O          32.4963   29.5423    5.9099 O.2       8 UNK        -0.5275 
     54 N          31.9076   31.0170    7.5380 N.am      9 UNK        -0.4246 
     55 CA         32.7918   30.5149    8.5975 C.3       9 UNK         0.0261 
     56 CB         32.4357   31.2021    9.9258 C.3       9 UNK        -0.1959 
     57 C          34.2916   30.6835    8.2910 C.2       9 UNK         0.5033 
     58 O          35.1033   29.9261    8.8244 O.2       9 UNK        -0.5390 
     59 N          34.6318   31.6446    7.4188 N.am      10 UNK        -0.4215 
     60 CA         35.9884   31.9299    6.9401 C.3       10 UNK         0.0240 
     61 CB         35.9471   33.1622    6.0214 C.3       10 UNK        -0.1982 
     62 C          36.6697   30.7495    6.2214 C.2       10 UNK         0.4970 
     63 O          37.8994   30.6802    6.2263 O.2       10 UNK        -0.4916 
     64 N          35.8732   29.8440    5.6383 N.am      11 UNK        -0.4279 
     65 CA         36.3442   28.5849    5.0432 C.3       11 UNK         0.1003 
     66 C          36.6526   27.4678    6.0849 C.2       11 UNK         0.5709 
     67 N          36.3749   27.6431    7.3726 N.am      11 UNK        -0.7358 
     68 O          37.1730   26.4172    5.7168 O.2       11 UNK        -0.4999 
     69 C69        35.3775   28.0782    3.9430 C.3       12 UNK        -0.0954 
     70 S70        35.2311   29.2472    2.5483 S.3       12 UNK        -0.2268 
     71 C71        33.4311   29.3025    2.2927 C.3       12 UNK         0.0203 
     72 H72        28.1747   21.0502    5.2664 H         1 UNK         0.0888 
     73 H73        27.7730   19.4459    4.6512 H         1 UNK         0.0888 
     74 H74        26.4977   20.5012    5.2663 H         1 UNK         0.0888 
     75 H75        28.5854   22.5177    3.6271 H         1 UNK         0.3017 
     76 H76        27.9022   22.0714    0.8972 H         1 UNK         0.0873 
     77 H77        28.8592   24.4393    0.5892 H         1 UNK         0.0745 
     78 H78        29.9131   23.2151    1.2257 H         1 UNK         0.0745 
     79 H79        31.5197   24.9889    4.0141 H         1 UNK         0.0705 
     80 H80        31.5710   23.8007    2.7424 H         1 UNK         0.0705 
     81 H81        32.2611   27.2296    3.6353 H         1 UNK         0.1334 
     82 H82        33.3963   28.4845   -0.3060 H         1 UNK         0.1417 
     83 H83        31.5692   24.6512    0.2818 H         1 UNK         0.1562 
     84 H84        32.4692   25.2049   -1.8790 H         1 UNK         0.0748 
     85 H85        33.5374   26.5743   -2.0445 H         1 UNK         0.0748 
     86 H86        29.7632   26.3681   -0.8649 H         1 UNK         0.0940 
     87 H87        29.7528   25.3621   -2.2883 H         1 UNK         0.0940 
     88 H88        28.5809   27.3966   -3.5035 H         1 UNK         0.0703 
     89 H89        26.6888   26.4605   -1.5688 H         1 UNK         0.3081 
     90 H90        24.9658   24.6901   -3.8691 H         1 UNK         0.0719 
     91 H91        26.6048   22.8861   -2.0197 H         1 UNK         0.0809 
     92 H92        24.9724   22.5163   -2.5785 H         1 UNK         0.0809 
     93 H93        26.2922   22.6497   -3.7288 H         1 UNK         0.0809 
     94 H94        24.9307   24.5331   -0.9636 H         1 UNK         0.2990 
     95 H95        23.5039   27.5741   -0.3356 H         1 UNK         0.0690 
     96 H96        21.1705   26.7627    0.0004 H         1 UNK         0.0788 
     97 H97        21.4522   25.4371   -1.1293 H         1 UNK         0.0788 
     98 H98        21.4763   27.1019   -1.6934 H         1 UNK         0.0788 
     99 H99        22.9961   24.8695    0.7035 H         1 UNK         0.2993 
    100 H100       24.7277   25.4963    3.5339 H         1 UNK         0.0949 
    101 H101       22.5864   24.3964    2.8419 H         1 UNK         0.0767 
    102 H102       23.4864   23.2278    1.8714 H         1 UNK         0.0767 
    103 H103       23.6726   23.2622    3.6171 H         1 UNK         0.0767 
    104 H104       26.5724   24.2551    3.3705 H         1 UNK         0.3013 
    105 H105       29.8560   29.2347   -2.3449 H         1 UNK         0.3121 
    106 H106       27.9756   30.9843   -0.9038 H         1 UNK         0.0774 
    107 H107       29.3446   31.9257   -2.7464 H         1 UNK         0.0815 
    108 H108       30.8309   31.4345   -1.9340 H         1 UNK         0.0815 
    109 H109       29.7965   32.6624   -1.2177 H         1 UNK         0.0815 
    110 H110       27.9299   29.2845    0.8231 H         1 UNK         0.2987 
    111 H111       30.0750   28.6017    2.4618 H         1 UNK         0.0949 
    112 H112       27.0983   28.7887    3.1827 H         1 UNK         0.0806 
    113 H113       27.8789   27.4186    2.3999 H         1 UNK         0.0806 
    114 H114       28.3064   27.8458    4.0488 H         1 UNK         0.0806 
    115 H115       31.0149   29.3936    4.3204 H         1 UNK         0.3010 
    116 H116       29.9938   31.5498    5.8905 H         1 UNK         0.0829 
    117 H117       30.9045   32.9099    3.9668 H         1 UNK         0.0813 
    118 H118       31.9019   33.1297    5.3917 H         1 UNK         0.0813 
    119 H119       32.4496   32.0749    4.0939 H         1 UNK         0.0813 
    120 H120       31.3228   31.8063    7.7756 H         1 UNK         0.3038 
    121 H121       32.6048   29.4443    8.7057 H         1 UNK         0.0769 
    122 H122       32.5814   32.2818    9.8753 H         1 UNK         0.0811 
    123 H123       33.0599   30.8272   10.7384 H         1 UNK         0.0811 
    124 H124       31.3988   31.0143   10.2052 H         1 UNK         0.0811 
    125 H125       33.8917   32.2188    7.0440 H         1 UNK         0.3204 
    126 H126       36.5982   32.1713    7.8132 H         1 UNK         0.0748 
    127 H127       35.5565   34.0358    6.5438 H         1 UNK         0.0771 
    128 H128       36.9467   33.4198    5.6682 H         1 UNK         0.0771 
    129 H129       35.3256   32.9891    5.1415 H         1 UNK         0.0771 
    130 H130       34.8703   29.9582    5.6930 H         1 UNK         0.2980 
    131 H131       37.2993   28.7877    4.5548 H         1 UNK         0.0545 
    132 H132       35.9570   28.5016    7.7148 H         1 UNK         0.3459 
    133 H133       36.5927   26.9046    8.0220 H         1 UNK         0.3459 
    134 H134       35.7168   27.1265    3.5301 H         1 UNK         0.0616 
    135 H135       34.3955   27.8911    4.3785 H         1 UNK         0.0616 
    136 H136       33.1988   30.1180    1.6064 H         1 UNK         0.0634 
    137 H137       32.9408   29.5495    3.2333 H         1 UNK         0.0634 
@<TRIPOS>BOND
     1    1    2 1    
     2    1   72 1    
     3    1   73 1    
     4    1   74 1    
     5    2    3 2    
     6    2    4 am   BACKBONE|DICT|INTERRES
     7    4    5 1    
     8    4   75 1    
     9    5    6 1    
    10    5   35 1    
    11    5   76 1    
    12    6    7 1    
    13    6   77 1    
    14    6   78 1    
    15    7    8 1    
    16    8    9 1    
    17    8   79 1    
    18    8   80 1    
    19    9   10 ar   
    20    9   14 ar   
    21   10   11 ar   
    22   10   81 1    
    23   11   12 ar   
    24   11   71 1    
    25   12   13 ar   
    26   12   82 1    
    27   13   14 ar   
    28   13   15 1    
    29   14   83 1    
    30   15   16 1    
    31   15   84 1    
    32   15   85 1    
    33   16   17 1    
    34   17   18 1    
    35   17   86 1    
    36   17   87 1    
    37   18   19 1    
    38   18   37 1    
    39   18   88 1    
    40   19   20 am   BACKBONE|DICT|INTERRES
    41   19   89 1    
    42   20   21 2    
    43   20   22 1    
    44   22   23 1    
    45   22   24 1    
    46   22   90 1    
    47   23   91 1    
    48   23   92 1    
    49   23   93 1    
    50   24   25 am   BACKBONE|DICT|INTERRES
    51   24   94 1    
    52   25   26 2    
    53   25   27 1    
    54   27   28 1    
    55   27   29 1    
    56   27   95 1    
    57   28   96 1    
    58   28   97 1    
    59   28   98 1    
    60   29   30 am   BACKBONE|DICT|INTERRES
    61   29   99 1    
    62   30   31 2    
    63   30   32 1    
    64   32   33 1    
    65   32   34 1    
    66   32  100 1    
    67   33  101 1    
    68   33  102 1    
    69   33  103 1    
    70   34   35 am   BACKBONE|DICT|INTERRES
    71   34  104 1    
    72   35   36 2    
    73   37   38 2    
    74   37   39 am   BACKBONE|DICT|INTERRES
    75   39   40 1    
    76   39  105 1    
    77   40   41 1    
    78   40   42 1    
    79   40  106 1    
    80   41  107 1    
    81   41  108 1    
    82   41  109 1    
    83   42   43 2    
    84   42   44 am   BACKBONE|DICT|INTERRES
    85   44   45 1    
    86   44  110 1    
    87   45   46 1    
    88   45   47 1    
    89   45  111 1    
    90   46  112 1    
    91   46  113 1    
    92   46  114 1    
    93   47   48 2    
    94   47   49 am   BACKBONE|DICT|INTERRES
    95   49   50 1    
    96   49  115 1    
    97   50   51 1    
    98   50   52 1    
    99   50  116 1    
   100   51  117 1    
   101   51  118 1    
   102   51  119 1    
   103   52   53 2    
   104   52   54 am   BACKBONE|DICT|INTERRES
   105   54   55 1    
   106   54  120 1    
   107   55   56 1    
   108   55   57 1    
   109   55  121 1    
   110   56  122 1    
   111   56  123 1    
   112   56  124 1    
   113   57   58 2    
   114   57   59 am   BACKBONE|DICT|INTERRES
   115   59   60 1    
   116   59  125 1    
   117   60   61 1    
   118   60   62 1    
   119   60  126 1    
   120   61  127 1    
   121   61  128 1    
   122   61  129 1    
   123   62   63 2    
   124   62   64 am   BACKBONE|DICT|INTERRES
   125   64   65 1    
   126   64  130 1    
   127   65   66 1    
   128   65   69 1    
   129   65  131 1    
   130   66   67 am   BACKBONE|DICT|INTERRES
   131   66   68 2    
   132   67  132 1    
   133   67  133 1    
   134   69   70 1    
   135   69  134 1    
   136   69  135 1    
   137   70   71 1    
   138   71  136 1    
   139   71  137 1    
@<TRIPOS>SUBSTRUCTURE
     1 UNK         1 GROUP             0       ****    0 ROOT    
