@<TRIPOS>MOLECULE
3R136
137   139    1
SMALL
USER_CHARGES


@<TRIPOS>ATOM
      1 CA         28.5072   28.0453   -1.3125 C.3       0 UNK        -0.1979 
      2 C          28.8276   26.5720   -1.5158 C.2       0 UNK         0.4864 
      3 O          29.0370   26.1404   -2.6506 O.2       0 UNK        -0.5359 
      4 N          28.8345   25.7984   -0.4232 N.am      1 UNK        -0.4318 
      5 CA         29.0872   24.3550   -0.3232 C.3       1 UNK         0.0824 
      6 C6         30.4464   23.8793   -0.9032 C.3       12 UNK        -0.0944 
      7 S7         31.8804   24.7608   -0.2029 S.3       12 UNK        -0.2672 
      8 C8         32.5456   23.5340    0.9639 C.3       12 UNK         0.0333 
      9 C9         31.9002   23.6514    2.3358 C.ar      12 UNK        -0.0807 
     10 C10        32.3214   24.6599    3.2055 C.ar      12 UNK        -0.0894 
     11 C11        31.7907   24.7596    4.4931 C.ar      12 UNK        -0.0804 
     12 C12        30.8321   23.8342    4.9129 C.ar      12 UNK        -0.0824 
     13 C13        30.3934   22.8223    4.0503 C.ar      12 UNK        -0.0762 
     14 C14        30.9267   22.7396    2.7584 C.ar      12 UNK        -0.0782 
     15 C15        29.3824   21.7885    4.5330 C.3       12 UNK         0.0230 
     16 S16        27.6700   22.2068    4.0707 S.3       12 UNK        -0.2608 
     17 C17        27.3917   23.7357    5.0262 C.3       12 UNK        -0.0989 
     18 CA         27.3772   24.9695    4.0895 C.3       5 UNK         0.0716 
     19 N          26.1457   25.0091    3.2898 N.am      5 UNK        -0.4135 
     20 C          25.9935   25.6506    2.1273 C.2       4 UNK         0.5031 
     21 O          26.9016   26.2702    1.5633 O.2       4 UNK        -0.5229 
     22 CA         24.5827   25.6744    1.5350 C.3       4 UNK         0.0329 
     23 CB         23.7818   26.8441    2.1427 C.3       4 UNK        -0.2001 
     24 N          24.7074   25.8247    0.0895 N.am      4 UNK        -0.4303 
     25 C          23.7261   25.7212   -0.8139 C.2       3 UNK         0.5044 
     26 O          22.5473   25.4976   -0.5365 O.2       3 UNK        -0.5152 
     27 CA         24.1451   25.8727   -2.2852 C.3       3 UNK         0.0319 
     28 CB         24.4486   27.3422   -2.6227 C.3       3 UNK        -0.2001 
     29 N          25.3072   25.0420   -2.6076 N.am      3 UNK        -0.4354 
     30 C          25.2766   23.7044   -2.7106 C.2       2 UNK         0.4964 
     31 O          24.2516   23.0289   -2.6158 O.2       2 UNK        -0.5047 
     32 CA         26.6207   23.0005   -2.9529 C.3       2 UNK         0.0288 
     33 CB         26.9565   22.9670   -4.4527 C.3       2 UNK        -0.2113 
     34 N          27.7165   23.6383   -2.2225 N.am      2 UNK        -0.4145 
     35 C          27.9138   23.5436   -0.9008 C.2       1 UNK         0.5006 
     36 O          27.2093   22.8701   -0.1484 O.2       1 UNK        -0.5103 
     37 C          27.5895   26.3061    4.8368 C.2       5 UNK         0.5055 
     38 O          27.6378   26.3394    6.0677 O.2       5 UNK        -0.5220 
     39 N          27.6848   27.3875    4.0598 N.am      6 UNK        -0.4450 
     40 CA         27.8757   28.7673    4.4839 C.3       6 UNK         0.0367 
     41 CB         26.5440   29.3627    4.9853 C.3       6 UNK        -0.1929 
     42 C          28.4742   29.5309    3.2955 C.2       6 UNK         0.5070 
     43 O          27.8576   30.4630    2.7763 O.2       6 UNK        -0.5237 
     44 N          29.6518   29.0755    2.8500 N.am      7 UNK        -0.4739 
     45 CA         30.4460   29.7009    1.7915 C.3       7 UNK         0.0276 
     46 CB         31.4966   28.6903    1.2950 C.3       7 UNK        -0.1927 
     47 C          31.0924   31.0211    2.2592 C.2       7 UNK         0.5013 
     48 O          31.0803   31.3344    3.4529 O.2       7 UNK        -0.5193 
     49 N          31.6276   31.7788    1.2933 N.am      8 UNK        -0.4253 
     50 CA         32.2031   33.1148    1.4744 C.3       8 UNK         0.0242 
     51 CB         32.6274   33.6575    0.0990 C.3       8 UNK        -0.2000 
     52 C          33.3904   33.1699    2.4539 C.2       8 UNK         0.4948 
     53 O          34.1144   32.1825    2.6151 O.2       8 UNK        -0.5275 
     54 N          33.5832   34.3558    3.0504 N.am      9 UNK        -0.4246 
     55 CA         34.6462   34.7108    3.9957 C.3       9 UNK         0.0261 
     56 CB         36.0091   34.7939    3.2678 C.3       9 UNK        -0.1959 
     57 C          34.6359   33.7893    5.2305 C.2       9 UNK         0.5033 
     58 O          33.6489   33.7861    5.9677 O.2       9 UNK        -0.5390 
     59 N          35.7148   33.0234    5.4283 N.am      10 UNK        -0.4215 
     60 CA         35.8859   32.0647    6.5215 C.3       10 UNK         0.0240 
     61 CB         37.3892   31.9510    6.8367 C.3       10 UNK        -0.1982 
     62 C          35.2719   30.6783    6.2339 C.2       10 UNK         0.4970 
     63 O          35.5097   29.7615    7.0214 O.2       10 UNK        -0.4916 
     64 N          34.5294   30.5265    5.1257 N.am      11 UNK        -0.4279 
     65 CA         33.9846   29.2524    4.6232 C.3       11 UNK         0.1003 
     66 C          35.0651   28.3330    3.9686 C.2       11 UNK         0.5709 
     67 N          36.2446   28.8408    3.6278 N.am      11 UNK        -0.7358 
     68 O          34.8372   27.1515    3.7309 O.2       11 UNK        -0.4999 
     69 C69        33.0620   28.5383    5.6627 C.3       12 UNK        -0.0954 
     70 S70        31.7603   27.4967    4.9178 S.3       12 UNK        -0.2268 
     71 C71        32.3003   25.8377    5.4370 C.3       12 UNK         0.0203 
     72 H72        27.7459   28.3688   -2.0214 H         1 UNK         0.0888 
     73 H73        28.1396   28.2460   -0.3056 H         1 UNK         0.0888 
     74 H74        29.4014   28.6460   -1.4757 H         1 UNK         0.0888 
     75 H75        28.5140   26.2084    0.4487 H         1 UNK         0.3017 
     76 H76        29.1047   24.1442    0.7478 H         1 UNK         0.0873 
     77 H77        30.5683   22.8068   -0.7431 H         1 UNK         0.0745 
     78 H78        30.4807   24.0184   -1.9847 H         1 UNK         0.0745 
     79 H79        32.4399   22.5248    0.5638 H         1 UNK         0.0705 
     80 H80        33.6193   23.7020    1.0619 H         1 UNK         0.0705 
     81 H81        33.0756   25.3655    2.8834 H         1 UNK         0.1334 
     82 H82        30.4423   23.8930    5.9195 H         1 UNK         0.1417 
     83 H83        30.6004   21.9518    2.0929 H         1 UNK         0.1562 
     84 H84        29.4455   21.6691    5.6159 H         1 UNK         0.0748 
     85 H85        29.6285   20.8131    4.1107 H         1 UNK         0.0748 
     86 H86        28.1602   23.8195    5.7943 H         1 UNK         0.0940 
     87 H87        26.4495   23.6503    5.5703 H         1 UNK         0.0940 
     88 H88        28.2268   24.8775    3.4080 H         1 UNK         0.0703 
     89 H89        25.3442   24.5504    3.6975 H         1 UNK         0.3081 
     90 H90        24.0865   24.7257    1.7497 H         1 UNK         0.0719 
     91 H91        24.2376   27.8068    1.9068 H         1 UNK         0.0809 
     92 H92        22.7546   26.8633    1.7793 H         1 UNK         0.0809 
     93 H93        23.7324   26.7655    3.2296 H         1 UNK         0.0809 
     94 H94        25.6540   26.0025   -0.2186 H         1 UNK         0.2990 
     95 H95        23.3083   25.5490   -2.9083 H         1 UNK         0.0690 
     96 H96        24.6861   27.4651   -3.6796 H         1 UNK         0.0788 
     97 H97        25.2862   27.7313   -2.0430 H         1 UNK         0.0788 
     98 H98        23.5855   27.9749   -2.4107 H         1 UNK         0.0788 
     99 H99        26.1920   25.5124   -2.7289 H         1 UNK         0.2993 
    100 H100       26.5244   21.9711   -2.5999 H         1 UNK         0.0949 
    101 H101       26.1596   22.4839   -5.0201 H         1 UNK         0.0767 
    102 H102       27.0878   23.9698   -4.8617 H         1 UNK         0.0767 
    103 H103       27.8724   22.4061   -4.6403 H         1 UNK         0.0767 
    104 H104       28.3103   24.2849   -2.7344 H         1 UNK         0.3013 
    105 H105       27.6035   27.2455    3.0552 H         1 UNK         0.3121 
    106 H106       28.6052   28.7975    5.2963 H         1 UNK         0.0774 
    107 H107       26.1706   28.8258    5.8572 H         1 UNK         0.0815 
    108 H108       26.6696   30.4059    5.2778 H         1 UNK         0.0815 
    109 H109       25.7730   29.3277    4.2147 H         1 UNK         0.0815 
    110 H110       30.1053   28.3354    3.3697 H         1 UNK         0.2987 
    111 H111       29.7756   29.9382    0.9626 H         1 UNK         0.0949 
    112 H112       32.2028   28.4163    2.0778 H         1 UNK         0.0806 
    113 H113       31.0266   27.7723    0.9405 H         1 UNK         0.0806 
    114 H114       32.0758   29.0929    0.4635 H         1 UNK         0.0806 
    115 H115       31.6222   31.4251    0.3481 H         1 UNK         0.3010 
    116 H116       31.4090   33.7514    1.8704 H         1 UNK         0.0829 
    117 H117       31.7838   33.7027   -0.5902 H         1 UNK         0.0813 
    118 H118       33.0286   34.6688    0.1797 H         1 UNK         0.0813 
    119 H119       33.4014   33.0375   -0.3557 H         1 UNK         0.0813 
    120 H120       32.9146   35.0908    2.8651 H         1 UNK         0.3038 
    121 H121       34.4120   35.7103    4.3655 H         1 UNK         0.0769 
    122 H122       36.3086   33.8401    2.8317 H         1 UNK         0.0811 
    123 H123       36.8012   35.1195    3.9436 H         1 UNK         0.0811 
    124 H124       35.9702   35.5216    2.4570 H         1 UNK         0.0811 
    125 H125       36.4641   33.0789    4.7532 H         1 UNK         0.3204 
    126 H126       35.3859   32.4521    7.4118 H         1 UNK         0.0748 
    127 H127       37.8201   32.9244    7.0723 H         1 UNK         0.0771 
    128 H128       37.5642   31.3084    7.7008 H         1 UNK         0.0771 
    129 H129       37.9472   31.5298    5.9994 H         1 UNK         0.0771 
    130 H130       34.3985   31.3170    4.5036 H         1 UNK         0.2980 
    131 H131       33.3512   29.5591    3.7921 H         1 UNK         0.0545 
    132 H132       36.4470   29.8148    3.7806 H         1 UNK         0.3459 
    133 H133       36.9298   28.2416    3.1959 H         1 UNK         0.3459 
    134 H134       33.6513   27.9568    6.3731 H         1 UNK         0.0616 
    135 H135       32.5385   29.2864    6.2599 H         1 UNK         0.0616 
    136 H136       31.9599   25.6594    6.4580 H         1 UNK         0.0634 
    137 H137       33.3891   25.7870    5.4635 H         1 UNK         0.0634 
@<TRIPOS>BOND
     1    1    2 1    
     2    1   72 1    
     3    1   73 1    
     4    1   74 1    
     5    2    3 2    
     6    2    4 am   BACKBONE|DICT|INTERRES
     7    4    5 1    
     8    4   75 1    
     9    5    6 1    
    10    5   35 1    
    11    5   76 1    
    12    6    7 1    
    13    6   77 1    
    14    6   78 1    
    15    7    8 1    
    16    8    9 1    
    17    8   79 1    
    18    8   80 1    
    19    9   10 ar   
    20    9   14 ar   
    21   10   11 ar   
    22   10   81 1    
    23   11   12 ar   
    24   11   71 1    
    25   12   13 ar   
    26   12   82 1    
    27   13   14 ar   
    28   13   15 1    
    29   14   83 1    
    30   15   16 1    
    31   15   84 1    
    32   15   85 1    
    33   16   17 1    
    34   17   18 1    
    35   17   86 1    
    36   17   87 1    
    37   18   19 1    
    38   18   37 1    
    39   18   88 1    
    40   19   20 am   BACKBONE|DICT|INTERRES
    41   19   89 1    
    42   20   21 2    
    43   20   22 1    
    44   22   23 1    
    45   22   24 1    
    46   22   90 1    
    47   23   91 1    
    48   23   92 1    
    49   23   93 1    
    50   24   25 am   BACKBONE|DICT|INTERRES
    51   24   94 1    
    52   25   26 2    
    53   25   27 1    
    54   27   28 1    
    55   27   29 1    
    56   27   95 1    
    57   28   96 1    
    58   28   97 1    
    59   28   98 1    
    60   29   30 am   BACKBONE|DICT|INTERRES
    61   29   99 1    
    62   30   31 2    
    63   30   32 1    
    64   32   33 1    
    65   32   34 1    
    66   32  100 1    
    67   33  101 1    
    68   33  102 1    
    69   33  103 1    
    70   34   35 am   BACKBONE|DICT|INTERRES
    71   34  104 1    
    72   35   36 2    
    73   37   38 2    
    74   37   39 am   BACKBONE|DICT|INTERRES
    75   39   40 1    
    76   39  105 1    
    77   40   41 1    
    78   40   42 1    
    79   40  106 1    
    80   41  107 1    
    81   41  108 1    
    82   41  109 1    
    83   42   43 2    
    84   42   44 am   BACKBONE|DICT|INTERRES
    85   44   45 1    
    86   44  110 1    
    87   45   46 1    
    88   45   47 1    
    89   45  111 1    
    90   46  112 1    
    91   46  113 1    
    92   46  114 1    
    93   47   48 2    
    94   47   49 am   BACKBONE|DICT|INTERRES
    95   49   50 1    
    96   49  115 1    
    97   50   51 1    
    98   50   52 1    
    99   50  116 1    
   100   51  117 1    
   101   51  118 1    
   102   51  119 1    
   103   52   53 2    
   104   52   54 am   BACKBONE|DICT|INTERRES
   105   54   55 1    
   106   54  120 1    
   107   55   56 1    
   108   55   57 1    
   109   55  121 1    
   110   56  122 1    
   111   56  123 1    
   112   56  124 1    
   113   57   58 2    
   114   57   59 am   BACKBONE|DICT|INTERRES
   115   59   60 1    
   116   59  125 1    
   117   60   61 1    
   118   60   62 1    
   119   60  126 1    
   120   61  127 1    
   121   61  128 1    
   122   61  129 1    
   123   62   63 2    
   124   62   64 am   BACKBONE|DICT|INTERRES
   125   64   65 1    
   126   64  130 1    
   127   65   66 1    
   128   65   69 1    
   129   65  131 1    
   130   66   67 am   BACKBONE|DICT|INTERRES
   131   66   68 2    
   132   67  132 1    
   133   67  133 1    
   134   69   70 1    
   135   69  134 1    
   136   69  135 1    
   137   70   71 1    
   138   71  136 1    
   139   71  137 1    
@<TRIPOS>SUBSTRUCTURE
     1 UNK         1 GROUP             0       ****    0 ROOT    
