@<TRIPOS>MOLECULE
3R136
137   139    1
SMALL
USER_CHARGES


@<TRIPOS>ATOM
      1 CA         28.6228   23.2890    4.0759 C.3       0 UNK        -0.1979 
      2 C          29.1300   22.6306    2.8026 C.2       0 UNK         0.4864 
      3 O          28.7716   21.4865    2.5207 O.2       0 UNK        -0.5359 
      4 N          29.9453   23.3525    2.0204 N.am      1 UNK        -0.4318 
      5 CA         30.4203   22.9470    0.6886 C.3       1 UNK         0.0824 
      6 C6         31.5722   23.8544    0.1856 C.3       12 UNK        -0.0944 
      7 S7         31.1424   25.6314    0.0841 S.3       12 UNK        -0.2672 
      8 C8         32.2504   26.3815    1.3171 C.3       12 UNK         0.0333 
      9 C9         31.7290   26.1832    2.7323 C.ar      12 UNK        -0.0807 
     10 C10        32.1744   25.1106    3.5107 C.ar      12 UNK        -0.0894 
     11 C11        31.6787   24.9199    4.8038 C.ar      12 UNK        -0.0804 
     12 C12        30.7318   25.8130    5.3155 C.ar      12 UNK        -0.0824 
     13 C13        30.2803   26.8922    4.5492 C.ar      12 UNK        -0.0762 
     14 C14        30.7949   27.0778    3.2624 C.ar      12 UNK        -0.0782 
     15 C15        29.2506   27.8574    5.1261 C.3       12 UNK         0.0230 
     16 S16        27.6155   27.7053    4.3259 S.3       12 UNK        -0.2608 
     17 C17        27.7571   28.8892    2.9433 C.3       12 UNK        -0.0989 
     18 CA         27.6144   28.1977    1.5599 C.3       5 UNK         0.0716 
     19 N          26.2314   27.8281    1.2192 N.am      5 UNK        -0.4135 
     20 C          25.1992   28.6623    0.9951 C.2       4 UNK         0.5031 
     21 O          25.2450   29.8781    1.1850 O.2       4 UNK        -0.5229 
     22 CA         23.8884   28.0772    0.4302 C.3       4 UNK         0.0329 
     23 CB         23.6295   28.6211   -0.9862 C.3       4 UNK        -0.2001 
     24 N          23.8697   26.6164    0.3714 N.am      4 UNK        -0.4303 
     25 C          23.4971   25.8098    1.3733 C.2       3 UNK         0.5044 
     26 O          23.0694   26.2105    2.4561 O.2       3 UNK        -0.5152 
     27 CA         23.6459   24.2938    1.1311 C.3       3 UNK         0.0319 
     28 CB         22.3084   23.6910    0.6720 C.3       3 UNK        -0.2001 
     29 N          24.6984   23.9248    0.1714 N.am      3 UNK        -0.4354 
     30 C          25.9938   24.2360    0.3077 C.2       2 UNK         0.4964 
     31 O          26.4361   24.9368    1.2242 O.2       2 UNK        -0.5047 
     32 CA         26.9563   23.7307   -0.7719 C.3       2 UNK         0.0288 
     33 CB         26.9666   24.6682   -1.9919 C.3       2 UNK        -0.2113 
     34 N          28.2671   23.7241   -0.1465 N.am      2 UNK        -0.4145 
     35 C          29.2681   22.8623   -0.3391 C.2       1 UNK         0.5006 
     36 O          29.2944   22.0185   -1.2368 O.2       1 UNK        -0.5103 
     37 C          28.2370   29.0299    0.4182 C.2       5 UNK         0.5055 
     38 O          28.2666   30.2613    0.4891 O.2       5 UNK        -0.5220 
     39 N          28.6912   28.3361   -0.6363 N.am      6 UNK        -0.4450 
     40 CA         29.2884   28.9254   -1.8384 C.3       6 UNK         0.0367 
     41 CB         29.6482   27.8110   -2.8346 C.3       6 UNK        -0.1929 
     42 C          30.5191   29.7905   -1.5122 C.2       6 UNK         0.5070 
     43 O          31.4505   29.3056   -0.8684 O.2       6 UNK        -0.5237 
     44 N          30.4701   31.0609   -1.9396 N.am      7 UNK        -0.4739 
     45 CA         31.4484   32.1281   -1.6770 C.3       7 UNK         0.0276 
     46 CB         32.8050   31.8077   -2.3415 C.3       7 UNK        -0.1927 
     47 C          31.5964   32.4943   -0.1832 C.2       7 UNK         0.5013 
     48 O          32.6223   33.0613    0.1996 O.2       7 UNK        -0.5193 
     49 N          30.5750   32.1780    0.6297 N.am      8 UNK        -0.4253 
     50 CA         30.4946   32.3104    2.0881 C.3       8 UNK         0.0242 
     51 CB         30.6185   33.7754    2.5565 C.3       8 UNK        -0.2000 
     52 C          31.4754   31.3732    2.8076 C.2       8 UNK         0.4948 
     53 O          31.0333   30.4033    3.4204 O.2       8 UNK        -0.5275 
     54 N          32.7786   31.6721    2.7186 N.am      9 UNK        -0.4246 
     55 CA         33.9519   30.9230    3.1975 C.3       9 UNK         0.0261 
     56 CB         34.0811   29.5919    2.4334 C.3       9 UNK        -0.1959 
     57 C          34.0462   30.6602    4.7140 C.2       9 UNK         0.5033 
     58 O          35.1603   30.6318    5.2391 O.2       9 UNK        -0.5390 
     59 N          32.9092   30.4061    5.3770 N.am      10 UNK        -0.4215 
     60 CA         32.7508   29.9782    6.7755 C.3       10 UNK         0.0240 
     61 CB         33.1227   31.1246    7.7392 C.3       10 UNK        -0.1982 
     62 C          33.5000   28.6653    7.0926 C.2       10 UNK         0.4970 
     63 O          33.9317   28.4591    8.2280 O.2       10 UNK        -0.4916 
     64 N          33.6580   27.8185    6.0668 N.am      11 UNK        -0.4279 
     65 CA         34.4851   26.6054    6.0496 C.3       11 UNK         0.1003 
     66 C          36.0199   26.8506    6.1964 C.2       11 UNK         0.5709 
     67 N          36.5215   28.0676    6.0124 N.am      11 UNK        -0.7358 
     68 O          36.7808   25.9195    6.4494 O.2       11 UNK        -0.4999 
     69 C69        33.9278   25.4874    6.9826 C.3       12 UNK        -0.0954 
     70 S70        33.8963   23.8690    6.1408 S.3       12 UNK        -0.2268 
     71 C71        32.1473   23.7375    5.6442 C.3       12 UNK         0.0203 
     72 H72        28.6509   24.3759    4.0003 H         1 UNK         0.0888 
     73 H73        27.5893   22.9998    4.2647 H         1 UNK         0.0888 
     74 H74        29.2257   22.9816    4.9294 H         1 UNK         0.0888 
     75 H75        30.2371   24.2740    2.3198 H         1 UNK         0.3017 
     76 H76        30.8200   21.9352    0.7858 H         1 UNK         0.0873 
     77 H77        31.9037   23.5297   -0.8025 H         1 UNK         0.0745 
     78 H78        32.4411   23.7271    0.8318 H         1 UNK         0.0745 
     79 H79        32.3246   27.4472    1.0975 H         1 UNK         0.0705 
     80 H80        33.2590   25.9793    1.2115 H         1 UNK         0.0705 
     81 H81        32.9041   24.4185    3.1129 H         1 UNK         0.1334 
     82 H82        30.3423   25.6646    6.3134 H         1 UNK         0.1417 
     83 H83        30.4653   27.9160    2.6656 H         1 UNK         0.1562 
     84 H84        29.6175   28.8816    5.0588 H         1 UNK         0.0748 
     85 H85        29.1179   27.6665    6.1920 H         1 UNK         0.0748 
     86 H86        28.7148   29.4021    3.0186 H         1 UNK         0.0940 
     87 H87        27.0104   29.6728    3.0747 H         1 UNK         0.0940 
     88 H88        28.1781   27.2637    1.6000 H         1 UNK         0.0703 
     89 H89        26.0805   26.8306    1.1057 H         1 UNK         0.3081 
     90 H90        23.0772   28.4197    1.0764 H         1 UNK         0.0719 
     91 H91        24.4178   28.3301   -1.6818 H         1 UNK         0.0809 
     92 H92        22.6802   28.2604   -1.3829 H         1 UNK         0.0809 
     93 H93        23.5827   29.7111   -0.9857 H         1 UNK         0.0809 
     94 H94        24.1938   26.1908   -0.4847 H         1 UNK         0.2990 
     95 H95        23.9106   23.8433    2.0901 H         1 UNK         0.0690 
     96 H96        22.3648   22.6045    0.6015 H         1 UNK         0.0788 
     97 H97        22.0045   24.0770   -0.3019 H         1 UNK         0.0788 
     98 H98        21.5108   23.9257    1.3786 H         1 UNK         0.0788 
     99 H99        24.4115   23.3638   -0.6186 H         1 UNK         0.2993 
    100 H100       26.6768   22.7165   -1.0659 H         1 UNK         0.0949 
    101 H101       27.7115   24.3546   -2.7237 H         1 UNK         0.0767 
    102 H102       25.9989   24.6683   -2.4948 H         1 UNK         0.0767 
    103 H103       27.1904   25.6976   -1.7098 H         1 UNK         0.0767 
    104 H104       28.3192   24.3346    0.6600 H         1 UNK         0.3013 
    105 H105       28.6759   27.3279   -0.5986 H         1 UNK         0.3121 
    106 H106       28.5249   29.5555   -2.2995 H         1 UNK         0.0774 
    107 H107       30.0642   28.2298   -3.7518 H         1 UNK         0.0815 
    108 H108       30.3929   27.1279   -2.4250 H         1 UNK         0.0815 
    109 H109       28.7723   27.2262   -3.1153 H         1 UNK         0.0815 
    110 H110       29.6466   31.3537   -2.4488 H         1 UNK         0.2987 
    111 H111       31.0538   33.0241   -2.1587 H         1 UNK         0.0949 
    112 H112       33.4792   32.6634   -2.2889 H         1 UNK         0.0806 
    113 H113       33.3071   30.9712   -1.8545 H         1 UNK         0.0806 
    114 H114       32.6829   31.5592   -3.3956 H         1 UNK         0.0806 
    115 H115       29.8005   31.6618    0.2238 H         1 UNK         0.3010 
    116 H116       29.4920   31.9732    2.3571 H         1 UNK         0.0829 
    117 H117       30.4926   33.8467    3.6377 H         1 UNK         0.0813 
    118 H118       31.5860   34.2156    2.3156 H         1 UNK         0.0813 
    119 H119       29.8490   34.3985    2.1009 H         1 UNK         0.0813 
    120 H120       32.9967   32.4699    2.1296 H         1 UNK         0.3038 
    121 H121       34.8146   31.5382    2.9369 H         1 UNK         0.0769 
    122 H122       35.0130   29.0832    2.6846 H         1 UNK         0.0811 
    123 H123       34.0756   29.7492    1.3545 H         1 UNK         0.0811 
    124 H124       33.2646   28.9127    2.6765 H         1 UNK         0.0811 
    125 H125       32.0612   30.4014    4.8063 H         1 UNK         0.3204 
    126 H126       31.6902   29.7605    6.9096 H         1 UNK         0.0748 
    127 H127       32.8827   30.8641    8.7708 H         1 UNK         0.0771 
    128 H128       34.1880   31.3548    7.7009 H         1 UNK         0.0771 
    129 H129       32.5740   32.0357    7.5009 H         1 UNK         0.0771 
    130 H130       33.2479   28.0705    5.1804 H         1 UNK         0.2980 
    131 H131       34.3861   26.2657    5.0186 H         1 UNK         0.0545 
    132 H132       37.5158   28.2019    6.1011 H         1 UNK         0.3459 
    133 H133       35.9274   28.8615    5.7984 H         1 UNK         0.3459 
    134 H134       34.5129   25.4018    7.8999 H         1 UNK         0.0616 
    135 H135       32.9145   25.7189    7.3135 H         1 UNK         0.0616 
    136 H136       32.0127   22.8180    5.0730 H         1 UNK         0.0634 
    137 H137       31.5347   23.6321    6.5410 H         1 UNK         0.0634 
@<TRIPOS>BOND
     1    1    2 1    
     2    1   72 1    
     3    1   73 1    
     4    1   74 1    
     5    2    3 2    
     6    2    4 am   BACKBONE|DICT|INTERRES
     7    4    5 1    
     8    4   75 1    
     9    5    6 1    
    10    5   35 1    
    11    5   76 1    
    12    6    7 1    
    13    6   77 1    
    14    6   78 1    
    15    7    8 1    
    16    8    9 1    
    17    8   79 1    
    18    8   80 1    
    19    9   10 ar   
    20    9   14 ar   
    21   10   11 ar   
    22   10   81 1    
    23   11   12 ar   
    24   11   71 1    
    25   12   13 ar   
    26   12   82 1    
    27   13   14 ar   
    28   13   15 1    
    29   14   83 1    
    30   15   16 1    
    31   15   84 1    
    32   15   85 1    
    33   16   17 1    
    34   17   18 1    
    35   17   86 1    
    36   17   87 1    
    37   18   19 1    
    38   18   37 1    
    39   18   88 1    
    40   19   20 am   BACKBONE|DICT|INTERRES
    41   19   89 1    
    42   20   21 2    
    43   20   22 1    
    44   22   23 1    
    45   22   24 1    
    46   22   90 1    
    47   23   91 1    
    48   23   92 1    
    49   23   93 1    
    50   24   25 am   BACKBONE|DICT|INTERRES
    51   24   94 1    
    52   25   26 2    
    53   25   27 1    
    54   27   28 1    
    55   27   29 1    
    56   27   95 1    
    57   28   96 1    
    58   28   97 1    
    59   28   98 1    
    60   29   30 am   BACKBONE|DICT|INTERRES
    61   29   99 1    
    62   30   31 2    
    63   30   32 1    
    64   32   33 1    
    65   32   34 1    
    66   32  100 1    
    67   33  101 1    
    68   33  102 1    
    69   33  103 1    
    70   34   35 am   BACKBONE|DICT|INTERRES
    71   34  104 1    
    72   35   36 2    
    73   37   38 2    
    74   37   39 am   BACKBONE|DICT|INTERRES
    75   39   40 1    
    76   39  105 1    
    77   40   41 1    
    78   40   42 1    
    79   40  106 1    
    80   41  107 1    
    81   41  108 1    
    82   41  109 1    
    83   42   43 2    
    84   42   44 am   BACKBONE|DICT|INTERRES
    85   44   45 1    
    86   44  110 1    
    87   45   46 1    
    88   45   47 1    
    89   45  111 1    
    90   46  112 1    
    91   46  113 1    
    92   46  114 1    
    93   47   48 2    
    94   47   49 am   BACKBONE|DICT|INTERRES
    95   49   50 1    
    96   49  115 1    
    97   50   51 1    
    98   50   52 1    
    99   50  116 1    
   100   51  117 1    
   101   51  118 1    
   102   51  119 1    
   103   52   53 2    
   104   52   54 am   BACKBONE|DICT|INTERRES
   105   54   55 1    
   106   54  120 1    
   107   55   56 1    
   108   55   57 1    
   109   55  121 1    
   110   56  122 1    
   111   56  123 1    
   112   56  124 1    
   113   57   58 2    
   114   57   59 am   BACKBONE|DICT|INTERRES
   115   59   60 1    
   116   59  125 1    
   117   60   61 1    
   118   60   62 1    
   119   60  126 1    
   120   61  127 1    
   121   61  128 1    
   122   61  129 1    
   123   62   63 2    
   124   62   64 am   BACKBONE|DICT|INTERRES
   125   64   65 1    
   126   64  130 1    
   127   65   66 1    
   128   65   69 1    
   129   65  131 1    
   130   66   67 am   BACKBONE|DICT|INTERRES
   131   66   68 2    
   132   67  132 1    
   133   67  133 1    
   134   69   70 1    
   135   69  134 1    
   136   69  135 1    
   137   70   71 1    
   138   71  136 1    
   139   71  137 1    
@<TRIPOS>SUBSTRUCTURE
     1 UNK         1 GROUP             0       ****    0 ROOT    
