@<TRIPOS>MOLECULE
3R136
137   139    1
SMALL
USER_CHARGES


@<TRIPOS>ATOM
      1 CA         24.4187   24.8583    3.9411 C.3       0 UNK        -0.1979 
      2 C          25.4339   24.4140    2.8995 C.2       0 UNK         0.4864 
      3 O          25.6450   25.1278    1.9206 O.2       0 UNK        -0.5359 
      4 N          26.0555   23.2445    3.1077 N.am      1 UNK        -0.4318 
      5 CA         27.0886   22.6222    2.2669 C.3       1 UNK         0.0824 
      6 C6         28.4658   23.3392    2.3301 C.3       12 UNK        -0.0944 
      7 S7         29.1157   23.4793    4.0280 S.3       12 UNK        -0.2672 
      8 C8         30.8934   23.1959    3.7610 C.3       12 UNK         0.0333 
      9 C9         31.5895   24.4283    3.1990 C.ar      12 UNK        -0.0807 
     10 C10        32.0404   25.4258    4.0692 C.ar      12 UNK        -0.0894 
     11 C11        32.7190   26.5446    3.5788 C.ar      12 UNK        -0.0804 
     12 C12        32.9474   26.6590    2.2057 C.ar      12 UNK        -0.0824 
     13 C13        32.5136   25.6653    1.3236 C.ar      12 UNK        -0.0762 
     14 C14        31.8234   24.5554    1.8244 C.ar      12 UNK        -0.0782 
     15 C15        32.8681   25.7649   -0.1542 C.3       12 UNK         0.0230 
     16 S16        32.1879   27.2601   -0.9438 S.3       12 UNK        -0.2608 
     17 C17        30.6244   26.6515   -1.6505 C.3       12 UNK        -0.0989 
     18 CA         29.4114   27.4957   -1.1927 C.3       5 UNK         0.0716 
     19 N          28.3265   27.4420   -2.1615 N.am      5 UNK        -0.4135 
     20 C          27.9293   28.4194   -2.9807 C.2       4 UNK         0.5031 
     21 O          28.5591   29.4599   -3.1733 O.2       4 UNK        -0.5229 
     22 CA         26.5767   28.2050   -3.6884 C.3       4 UNK         0.0329 
     23 CB         26.7921   27.6449   -5.1033 C.3       4 UNK        -0.2001 
     24 N          25.6872   27.3047   -2.9453 N.am      4 UNK        -0.4303 
     25 C          25.0961   27.5868   -1.7761 C.2       3 UNK         0.5044 
     26 O          25.1308   28.6977   -1.2468 O.2       3 UNK        -0.5152 
     27 CA         24.3858   26.4292   -1.0501 C.3       3 UNK         0.0319 
     28 CB         22.9976   26.1425   -1.6546 C.3       3 UNK        -0.2001 
     29 N          25.2040   25.2117   -0.9339 N.am      3 UNK        -0.4354 
     30 C          25.6148   24.3747   -1.9015 C.2       2 UNK         0.4964 
     31 O          25.2982   24.5045   -3.0850 O.2       2 UNK        -0.5047 
     32 CA         26.5764   23.2336   -1.5213 C.3       2 UNK         0.0288 
     33 CB         27.8581   23.2978   -2.3732 C.3       2 UNK        -0.2113 
     34 N          26.9622   23.2770   -0.1106 N.am      2 UNK        -0.4145 
     35 C          26.5795   22.3972    0.8253 C.2       1 UNK         0.5006 
     36 O          25.8479   21.4310    0.5983 O.2       1 UNK        -0.5103 
     37 C          28.7776   26.9621    0.0974 C.2       5 UNK         0.5055 
     38 O          28.1019   25.9314    0.0312 O.2       5 UNK        -0.5220 
     39 N          28.9445   27.6781    1.2119 N.am      6 UNK        -0.4450 
     40 CA         28.2381   27.4257    2.4640 C.3       6 UNK         0.0367 
     41 CB         26.9167   28.2163    2.4715 C.3       6 UNK        -0.1929 
     42 C          29.1179   27.8199    3.6488 C.2       6 UNK         0.5070 
     43 O          30.0376   28.6245    3.4895 O.2       6 UNK        -0.5237 
     44 N          28.7680   27.2940    4.8302 N.am      7 UNK        -0.4739 
     45 CA         29.4580   27.4807    6.1137 C.3       7 UNK         0.0276 
     46 CB         28.7268   26.6591    7.1877 C.3       7 UNK        -0.1927 
     47 C          29.6315   28.9418    6.5770 C.2       7 UNK         0.5013 
     48 O          30.4743   29.2018    7.4357 O.2       7 UNK        -0.5193 
     49 N          28.8399   29.8618    6.0105 N.am      8 UNK        -0.4253 
     50 CA         28.9377   31.3052    6.2249 C.3       8 UNK         0.0242 
     51 CB         27.6257   31.9639    5.7663 C.3       8 UNK        -0.2000 
     52 C          30.1424   31.9601    5.5189 C.2       8 UNK         0.4948 
     53 O          30.5100   33.0730    5.9004 O.2       8 UNK        -0.5275 
     54 N          30.7208   31.3020    4.5013 N.am      9 UNK        -0.4246 
     55 CA         31.8905   31.7937    3.7678 C.3       9 UNK         0.0261 
     56 CB         32.0086   31.0433    2.4298 C.3       9 UNK        -0.1959 
     57 C          33.1824   31.6572    4.5926 C.2       9 UNK         0.5033 
     58 O          33.2790   30.7897    5.4639 O.2       9 UNK        -0.5390 
     59 N          34.1760   32.4972    4.2804 N.am      10 UNK        -0.4215 
     60 CA         35.4788   32.5466    4.9503 C.3       10 UNK         0.0240 
     61 CB         36.0656   33.9626    4.7890 C.3       10 UNK        -0.1982 
     62 C          36.4380   31.4451    4.4531 C.2       10 UNK         0.4970 
     63 O          37.5205   31.7547    3.9515 O.2       10 UNK        -0.4916 
     64 N          36.0256   30.1795    4.5936 N.am      11 UNK        -0.4279 
     65 CA         36.8354   28.9935    4.2633 C.3       11 UNK         0.1003 
     66 C          37.9486   28.6489    5.2975 C.2       11 UNK         0.5709 
     67 N          37.9876   29.2723    6.4698 N.am      11 UNK        -0.7358 
     68 O          38.8053   27.8120    5.0216 O.2       11 UNK        -0.4999 
     69 C69        35.9554   27.7652    3.9089 C.3       12 UNK        -0.0954 
     70 S70        34.8253   27.2444    5.2473 S.3       12 UNK        -0.2268 
     71 C71        33.1996   27.6308    4.5298 C.3       12 UNK         0.0203 
     72 H72        23.4341   24.9564    3.4847 H         1 UNK         0.0888 
     73 H73        24.3429   24.1509    4.7667 H         1 UNK         0.0888 
     74 H74        24.7031   25.8278    4.3493 H         1 UNK         0.0888 
     75 H75        25.8071   22.7077    3.9265 H         1 UNK         0.3017 
     76 H76        27.2370   21.6231    2.6801 H         1 UNK         0.0873 
     77 H77        28.4118   24.3409    1.9183 H         1 UNK         0.0745 
     78 H78        29.1885   22.7996    1.7159 H         1 UNK         0.0745 
     79 H79        31.0426   22.3337    3.1093 H         1 UNK         0.0705 
     80 H80        31.3474   22.9286    4.7164 H         1 UNK         0.0705 
     81 H81        31.8699   25.3257    5.1321 H         1 UNK         0.1334 
     82 H82        33.4754   27.5185    1.8174 H         1 UNK         0.1417 
     83 H83        31.4945   23.7768    1.1500 H         1 UNK         0.1562 
     84 H84        32.5576   24.8729   -0.7001 H         1 UNK         0.0748 
     85 H85        33.9551   25.8007   -0.2403 H         1 UNK         0.0748 
     86 H86        30.4817   25.5895   -1.4402 H         1 UNK         0.0940 
     87 H87        30.7338   26.7199   -2.7343 H         1 UNK         0.0940 
     88 H88        29.7088   28.5363   -1.0431 H         1 UNK         0.0703 
     89 H89        27.7052   26.6570   -2.0201 H         1 UNK         0.3081 
     90 H90        26.0874   29.1777   -3.7711 H         1 UNK         0.0719 
     91 H91        27.4360   28.3021   -5.6896 H         1 UNK         0.0809 
     92 H92        27.2624   26.6608   -5.0812 H         1 UNK         0.0809 
     93 H93        25.8483   27.5535   -5.6412 H         1 UNK         0.0809 
     94 H94        25.5856   26.3539   -3.2931 H         1 UNK         0.2990 
     95 H95        24.2274   26.7604   -0.0223 H         1 UNK         0.0690 
     96 H96        22.4791   25.3610   -1.0992 H         1 UNK         0.0788 
     97 H97        23.0569   25.8299   -2.6974 H         1 UNK         0.0788 
     98 H98        22.3705   27.0343   -1.6216 H         1 UNK         0.0788 
     99 H99        25.5486   25.0473    0.0113 H         1 UNK         0.2993 
    100 H100       26.0606   22.2986   -1.7493 H         1 UNK         0.0949 
    101 H101       28.5338   22.4773   -2.1313 H         1 UNK         0.0767 
    102 H102       27.6303   23.2227   -3.4374 H         1 UNK         0.0767 
    103 H103       28.3992   24.2318   -2.2192 H         1 UNK         0.0767 
    104 H104       27.4826   24.1058    0.1717 H         1 UNK         0.3013 
    105 H105       29.5936   28.4540    1.2393 H         1 UNK         0.3121 
    106 H106       28.0145   26.3649    2.5617 H         1 UNK         0.0774 
    107 H107       26.2764   27.9179    1.6406 H         1 UNK         0.0815 
    108 H108       26.3527   28.0365    3.3873 H         1 UNK         0.0815 
    109 H109       27.0879   29.2905    2.3931 H         1 UNK         0.0815 
    110 H110       27.9868   26.6541    4.8464 H         1 UNK         0.2987 
    111 H111       30.4584   27.0650    6.0028 H         1 UNK         0.0949 
    112 H112       28.7001   25.6003    6.9280 H         1 UNK         0.0806 
    113 H113       29.2295   26.7396    8.1527 H         1 UNK         0.0806 
    114 H114       27.6998   26.9993    7.3259 H         1 UNK         0.0806 
    115 H115       28.1802   29.5467    5.3150 H         1 UNK         0.3010 
    116 H116       29.0537   31.4841    7.2961 H         1 UNK         0.0829 
    117 H117       26.7691   31.5657    6.3106 H         1 UNK         0.0813 
    118 H118       27.6467   33.0404    5.9429 H         1 UNK         0.0813 
    119 H119       27.4485   31.8125    4.7006 H         1 UNK         0.0813 
    120 H120       30.4022   30.3659    4.2645 H         1 UNK         0.3038 
    121 H121       31.7343   32.8528    3.5509 H         1 UNK         0.0769 
    122 H122       32.8538   31.4077    1.8447 H         1 UNK         0.0811 
    123 H123       31.1137   31.1783    1.8223 H         1 UNK         0.0811 
    124 H124       32.1507   29.9727    2.5723 H         1 UNK         0.0811 
    125 H125       34.0382   33.1507    3.5223 H         1 UNK         0.3204 
    126 H126       35.3290   32.3768    6.0189 H         1 UNK         0.0748 
    127 H127       37.0182   34.0538    5.3130 H         1 UNK         0.0771 
    128 H128       36.2437   34.2111    3.7418 H         1 UNK         0.0771 
    129 H129       35.3984   34.7181    5.2045 H         1 UNK         0.0771 
    130 H130       35.1175   30.0113    5.0147 H         1 UNK         0.2980 
    131 H131       37.3819   29.2354    3.3496 H         1 UNK         0.0545 
    132 H132       38.7178   29.0440    7.1258 H         1 UNK         0.3459 
    133 H133       37.2861   29.9530    6.7107 H         1 UNK         0.3459 
    134 H134       35.3794   27.9933    3.0131 H         1 UNK         0.0616 
    135 H135       36.5778   26.9105    3.6380 H         1 UNK         0.0616 
    136 H136       32.4856   27.7661    5.3407 H         1 UNK         0.0634 
    137 H137       33.2488   28.5883    4.0147 H         1 UNK         0.0634 
@<TRIPOS>BOND
     1    1    2 1    
     2    1   72 1    
     3    1   73 1    
     4    1   74 1    
     5    2    3 2    
     6    2    4 am   BACKBONE|DICT|INTERRES
     7    4    5 1    
     8    4   75 1    
     9    5    6 1    
    10    5   35 1    
    11    5   76 1    
    12    6    7 1    
    13    6   77 1    
    14    6   78 1    
    15    7    8 1    
    16    8    9 1    
    17    8   79 1    
    18    8   80 1    
    19    9   10 ar   
    20    9   14 ar   
    21   10   11 ar   
    22   10   81 1    
    23   11   12 ar   
    24   11   71 1    
    25   12   13 ar   
    26   12   82 1    
    27   13   14 ar   
    28   13   15 1    
    29   14   83 1    
    30   15   16 1    
    31   15   84 1    
    32   15   85 1    
    33   16   17 1    
    34   17   18 1    
    35   17   86 1    
    36   17   87 1    
    37   18   19 1    
    38   18   37 1    
    39   18   88 1    
    40   19   20 am   BACKBONE|DICT|INTERRES
    41   19   89 1    
    42   20   21 2    
    43   20   22 1    
    44   22   23 1    
    45   22   24 1    
    46   22   90 1    
    47   23   91 1    
    48   23   92 1    
    49   23   93 1    
    50   24   25 am   BACKBONE|DICT|INTERRES
    51   24   94 1    
    52   25   26 2    
    53   25   27 1    
    54   27   28 1    
    55   27   29 1    
    56   27   95 1    
    57   28   96 1    
    58   28   97 1    
    59   28   98 1    
    60   29   30 am   BACKBONE|DICT|INTERRES
    61   29   99 1    
    62   30   31 2    
    63   30   32 1    
    64   32   33 1    
    65   32   34 1    
    66   32  100 1    
    67   33  101 1    
    68   33  102 1    
    69   33  103 1    
    70   34   35 am   BACKBONE|DICT|INTERRES
    71   34  104 1    
    72   35   36 2    
    73   37   38 2    
    74   37   39 am   BACKBONE|DICT|INTERRES
    75   39   40 1    
    76   39  105 1    
    77   40   41 1    
    78   40   42 1    
    79   40  106 1    
    80   41  107 1    
    81   41  108 1    
    82   41  109 1    
    83   42   43 2    
    84   42   44 am   BACKBONE|DICT|INTERRES
    85   44   45 1    
    86   44  110 1    
    87   45   46 1    
    88   45   47 1    
    89   45  111 1    
    90   46  112 1    
    91   46  113 1    
    92   46  114 1    
    93   47   48 2    
    94   47   49 am   BACKBONE|DICT|INTERRES
    95   49   50 1    
    96   49  115 1    
    97   50   51 1    
    98   50   52 1    
    99   50  116 1    
   100   51  117 1    
   101   51  118 1    
   102   51  119 1    
   103   52   53 2    
   104   52   54 am   BACKBONE|DICT|INTERRES
   105   54   55 1    
   106   54  120 1    
   107   55   56 1    
   108   55   57 1    
   109   55  121 1    
   110   56  122 1    
   111   56  123 1    
   112   56  124 1    
   113   57   58 2    
   114   57   59 am   BACKBONE|DICT|INTERRES
   115   59   60 1    
   116   59  125 1    
   117   60   61 1    
   118   60   62 1    
   119   60  126 1    
   120   61  127 1    
   121   61  128 1    
   122   61  129 1    
   123   62   63 2    
   124   62   64 am   BACKBONE|DICT|INTERRES
   125   64   65 1    
   126   64  130 1    
   127   65   66 1    
   128   65   69 1    
   129   65  131 1    
   130   66   67 am   BACKBONE|DICT|INTERRES
   131   66   68 2    
   132   67  132 1    
   133   67  133 1    
   134   69   70 1    
   135   69  134 1    
   136   69  135 1    
   137   70   71 1    
   138   71  136 1    
   139   71  137 1    
@<TRIPOS>SUBSTRUCTURE
     1 UNK         1 GROUP             0       ****    0 ROOT    
