@<TRIPOS>MOLECULE
3R136
137   139    1
SMALL
USER_CHARGES


@<TRIPOS>ATOM
      1 CA         29.0682   19.9882   -3.0555 C.3       0 UNK        -0.1979 
      2 C          29.5534   20.0588   -1.6151 C.2       0 UNK         0.4864 
      3 O          29.7430   19.0169   -0.9866 O.2       0 UNK        -0.5359 
      4 N          29.7395   21.2805   -1.0919 N.am      1 UNK        -0.4318 
      5 CA         30.2433   21.5971    0.2572 C.3       1 UNK         0.0824 
      6 C6         31.6980   21.0972    0.5094 C.3       12 UNK        -0.0944 
      7 S7         32.8898   21.6939   -0.7425 S.3       12 UNK        -0.2672 
      8 C8         33.6775   23.0944    0.1172 C.3       12 UNK         0.0333 
      9 C9         32.6647   24.1765    0.4575 C.ar      12 UNK        -0.0807 
     10 C10        32.1908   24.3079    1.7647 C.ar      12 UNK        -0.0894 
     11 C11        31.2141   25.2568    2.0691 C.ar      12 UNK        -0.0804 
     12 C12        30.7223   26.0898    1.0583 C.ar      12 UNK        -0.0824 
     13 C13        31.1915   25.9758   -0.2575 C.ar      12 UNK        -0.0762 
     14 C14        32.1721   25.0196   -0.5430 C.ar      12 UNK        -0.0782 
     15 C15        30.6793   26.8629   -1.3951 C.3       12 UNK         0.0230 
     16 S16        28.9460   27.4193   -1.2302 S.3       12 UNK        -0.2608 
     17 C17        29.1539   29.1226   -0.6079 C.3       12 UNK        -0.0989 
     18 CA         27.9877   29.5488    0.3215 C.3       5 UNK         0.0716 
     19 N          27.9987   28.8063    1.5778 N.am      5 UNK        -0.4135 
     20 C          26.9343   28.2322    2.1460 C.2       4 UNK         0.5031 
     21 O          25.8001   28.2202    1.6599 O.2       4 UNK        -0.5229 
     22 CA         27.1723   27.5886    3.5225 C.3       4 UNK         0.0329 
     23 CB         26.6465   28.5092    4.6358 C.3       4 UNK        -0.2001 
     24 N          26.5315   26.2771    3.6558 N.am      4 UNK        -0.4303 
     25 C          26.7448   25.2109    2.8726 C.2       3 UNK         0.5044 
     26 O          27.5518   25.1765    1.9405 O.2       3 UNK        -0.5152 
     27 CA         25.9055   23.9685    3.1920 C.3       3 UNK         0.0319 
     28 CB         24.4367   24.1629    2.7676 C.3       3 UNK        -0.2001 
     29 N          26.4712   22.8161    2.4953 N.am      3 UNK        -0.4354 
     30 C          26.3312   21.5384    2.8658 C.2       2 UNK         0.4964 
     31 O          25.7088   21.1861    3.8689 O.2       2 UNK        -0.5047 
     32 CA         26.9611   20.4588    1.9679 C.3       2 UNK         0.0288 
     33 CB         25.8737   19.7563    1.1370 C.3       2 UNK        -0.2113 
     34 N          27.9922   20.9637    1.0572 N.am      2 UNK        -0.4145 
     35 C          29.2736   21.1777    1.3916 C.2       1 UNK         0.5006 
     36 O          29.6946   21.0543    2.5437 O.2       1 UNK        -0.5103 
     37 C          27.9720   31.0480    0.6801 C.2       5 UNK         0.5055 
     38 O          26.9409   31.5365    1.1466 O.2       5 UNK        -0.5220 
     39 N          29.0856   31.7604    0.4697 N.am      6 UNK        -0.4450 
     40 CA         29.2362   33.1855    0.7508 C.3       6 UNK         0.0367 
     41 CB         28.7315   34.0078   -0.4494 C.3       6 UNK        -0.1929 
     42 C          30.7097   33.4881    1.0418 C.2       6 UNK         0.5070 
     43 O          31.5794   32.6875    0.6851 O.2       6 UNK        -0.5237 
     44 N          30.9576   34.6465    1.6696 N.am      7 UNK        -0.4739 
     45 CA         32.2719   35.1797    2.0512 C.3       7 UNK         0.0276 
     46 CB         33.0445   35.6436    0.7942 C.3       7 UNK        -0.1927 
     47 C          33.0464   34.1915    2.9456 C.2       7 UNK         0.5013 
     48 O          32.5146   33.7728    3.9747 O.2       7 UNK        -0.5193 
     49 N          34.2581   33.7969    2.5323 N.am      8 UNK        -0.4253 
     50 CA         35.0938   32.8013    3.2119 C.3       8 UNK         0.0242 
     51 CB         36.4777   32.7679    2.5426 C.3       8 UNK        -0.2000 
     52 C          34.4825   31.3862    3.2539 C.2       8 UNK         0.4948 
     53 O          34.8899   30.5883    4.0985 O.2       8 UNK        -0.5275 
     54 N          33.5215   31.1022    2.3638 N.am      9 UNK        -0.4246 
     55 CA         32.7965   29.8359    2.2780 C.3       9 UNK         0.0261 
     56 CB         32.7666   29.3866    0.8093 C.3       9 UNK        -0.1959 
     57 C          31.3878   29.9243    2.8960 C.2       9 UNK         0.5033 
     58 O          30.5689   29.0290    2.6734 O.2       9 UNK        -0.5390 
     59 N          31.1052   30.9650    3.6942 N.am      10 UNK        -0.4215 
     60 CA         29.9108   31.0486    4.5397 C.3       10 UNK         0.0240 
     61 CB         29.5953   32.5242    4.8435 C.3       10 UNK        -0.1982 
     62 C          30.1201   30.2097    5.8169 C.2       10 UNK         0.4970 
     63 O          30.2585   30.7689    6.9061 O.2       10 UNK        -0.4916 
     64 N          30.2137   28.8866    5.6338 N.am      11 UNK        -0.4279 
     65 CA         30.5565   27.8825    6.6521 C.3       11 UNK         0.1003 
     66 C          29.6303   27.8996    7.9001 C.2       11 UNK         0.5709 
     67 N          30.1796   27.6636    9.0840 N.am      11 UNK        -0.7358 
     68 O          28.4181   28.0754    7.7990 O.2       11 UNK        -0.4999 
     69 C69        30.6136   26.4554    6.0448 C.3       12 UNK        -0.0954 
     70 S70        31.7032   26.3316    4.5827 S.3       12 UNK        -0.2268 
     71 C71        30.6533   25.3405    3.4788 C.3       12 UNK         0.0203 
     72 H72        29.7897   19.4468   -3.6668 H         1 UNK         0.0888 
     73 H73        28.1155   19.4615   -3.1057 H         1 UNK         0.0888 
     74 H74        28.9320   20.9782   -3.4903 H         1 UNK         0.0888 
     75 H75        29.5646   22.0874   -1.6751 H         1 UNK         0.3017 
     76 H76        30.2605   22.6863    0.3058 H         1 UNK         0.0873 
     77 H77        32.0501   21.4023    1.4960 H         1 UNK         0.0745 
     78 H78        31.7306   20.0067    0.5126 H         1 UNK         0.0745 
     79 H79        34.4568   23.5117   -0.5220 H         1 UNK         0.0705 
     80 H80        34.1793   22.7326    1.0161 H         1 UNK         0.0705 
     81 H81        32.5603   23.6541    2.5430 H         1 UNK         0.1334 
     82 H82        29.9618   26.8170    1.3006 H         1 UNK         0.1417 
     83 H83        32.5408   24.9112   -1.5542 H         1 UNK         0.1562 
     84 H84        30.7445   26.3111   -2.3342 H         1 UNK         0.0748 
     85 H85        31.3411   27.7221   -1.5086 H         1 UNK         0.0748 
     86 H86        29.2203   29.7793   -1.4777 H         1 UNK         0.0940 
     87 H87        30.1036   29.1954   -0.0810 H         1 UNK         0.0940 
     88 H88        27.0565   29.3590   -0.2170 H         1 UNK         0.0703 
     89 H89        28.8956   28.7982    2.0624 H         1 UNK         0.3081 
     90 H90        28.2444   27.4588    3.6687 H         1 UNK         0.0719 
     91 H91        25.5657   28.6416    4.5704 H         1 UNK         0.0809 
     92 H92        26.8756   28.1094    5.6231 H         1 UNK         0.0809 
     93 H93        27.0947   29.5006    4.5766 H         1 UNK         0.0809 
     94 H94        25.8267   26.2035    4.3747 H         1 UNK         0.2990 
     95 H95        25.9567   23.7975    4.2695 H         1 UNK         0.0690 
     96 H96        23.8326   23.2887    3.0112 H         1 UNK         0.0788 
     97 H97        24.3507   24.3400    1.6947 H         1 UNK         0.0788 
     98 H98        23.9856   25.0157    3.2760 H         1 UNK         0.0788 
     99 H99        27.0500   23.0530    1.6992 H         1 UNK         0.2993 
    100 H100       27.4144   19.7161    2.6286 H         1 UNK         0.0949 
    101 H101       25.1042   19.3284    1.7813 H         1 UNK         0.0767 
    102 H102       25.3786   20.4466    0.4526 H         1 UNK         0.0767 
    103 H103       26.2910   18.9390    0.5480 H         1 UNK         0.0767 
    104 H104       27.7257   21.0892    0.0917 H         1 UNK         0.3013 
    105 H105       29.9366   31.3141    0.1526 H         1 UNK         0.3121 
    106 H106       28.6560   33.4436    1.6393 H         1 UNK         0.0774 
    107 H107       28.8344   35.0782   -0.2672 H         1 UNK         0.0815 
    108 H108       29.2897   33.7760   -1.3575 H         1 UNK         0.0815 
    109 H109       27.6768   33.8161   -0.6472 H         1 UNK         0.0815 
    110 H110       30.1684   35.2163    1.9423 H         1 UNK         0.2987 
    111 H111       32.0862   36.0595    2.6695 H         1 UNK         0.0949 
    112 H112       33.2697   34.8180    0.1178 H         1 UNK         0.0806 
    113 H113       32.4647   36.3751    0.2312 H         1 UNK         0.0806 
    114 H114       33.9852   36.1275    1.0608 H         1 UNK         0.0806 
    115 H115       34.6138   34.1740    1.6657 H         1 UNK         0.3010 
    116 H116       35.2210   33.1267    4.2467 H         1 UNK         0.0829 
    117 H117       36.9635   33.7430    2.5834 H         1 UNK         0.0813 
    118 H118       37.1377   32.0593    3.0454 H         1 UNK         0.0813 
    119 H119       36.4132   32.4661    1.4964 H         1 UNK         0.0813 
    120 H120       33.2047   31.8293    1.7298 H         1 UNK         0.3038 
    121 H121       33.3231   29.0637    2.8425 H         1 UNK         0.0769 
    122 H122       32.2694   28.4236    0.7091 H         1 UNK         0.0811 
    123 H123       33.7756   29.2639    0.4159 H         1 UNK         0.0811 
    124 H124       32.2482   30.1042    0.1741 H         1 UNK         0.0811 
    125 H125       31.8085   31.6809    3.8378 H         1 UNK         0.3204 
    126 H126       29.0574   30.6385    3.9974 H         1 UNK         0.0748 
    127 H127       28.6804   32.6128    5.4306 H         1 UNK         0.0771 
    128 H128       30.3940   33.0022    5.4118 H         1 UNK         0.0771 
    129 H129       29.4502   33.0971    3.9289 H         1 UNK         0.0771 
    130 H130       30.1660   28.5412    4.6833 H         1 UNK         0.2980 
    131 H131       31.5628   28.1375    6.9899 H         1 UNK         0.0545 
    132 H132       29.5909   27.6539    9.9021 H         1 UNK         0.3459 
    133 H133       31.1703   27.5021    9.1782 H         1 UNK         0.3459 
    134 H134       30.9777   25.7422    6.7865 H         1 UNK         0.0616 
    135 H135       29.6076   26.1258    5.7775 H         1 UNK         0.0616 
    136 H136       30.5394   24.3377    3.8937 H         1 UNK         0.0634 
    137 H137       29.6561   25.7710    3.4487 H         1 UNK         0.0634 
@<TRIPOS>BOND
     1    1    2 1    
     2    1   72 1    
     3    1   73 1    
     4    1   74 1    
     5    2    3 2    
     6    2    4 am   BACKBONE|DICT|INTERRES
     7    4    5 1    
     8    4   75 1    
     9    5    6 1    
    10    5   35 1    
    11    5   76 1    
    12    6    7 1    
    13    6   77 1    
    14    6   78 1    
    15    7    8 1    
    16    8    9 1    
    17    8   79 1    
    18    8   80 1    
    19    9   10 ar   
    20    9   14 ar   
    21   10   11 ar   
    22   10   81 1    
    23   11   12 ar   
    24   11   71 1    
    25   12   13 ar   
    26   12   82 1    
    27   13   14 ar   
    28   13   15 1    
    29   14   83 1    
    30   15   16 1    
    31   15   84 1    
    32   15   85 1    
    33   16   17 1    
    34   17   18 1    
    35   17   86 1    
    36   17   87 1    
    37   18   19 1    
    38   18   37 1    
    39   18   88 1    
    40   19   20 am   BACKBONE|DICT|INTERRES
    41   19   89 1    
    42   20   21 2    
    43   20   22 1    
    44   22   23 1    
    45   22   24 1    
    46   22   90 1    
    47   23   91 1    
    48   23   92 1    
    49   23   93 1    
    50   24   25 am   BACKBONE|DICT|INTERRES
    51   24   94 1    
    52   25   26 2    
    53   25   27 1    
    54   27   28 1    
    55   27   29 1    
    56   27   95 1    
    57   28   96 1    
    58   28   97 1    
    59   28   98 1    
    60   29   30 am   BACKBONE|DICT|INTERRES
    61   29   99 1    
    62   30   31 2    
    63   30   32 1    
    64   32   33 1    
    65   32   34 1    
    66   32  100 1    
    67   33  101 1    
    68   33  102 1    
    69   33  103 1    
    70   34   35 am   BACKBONE|DICT|INTERRES
    71   34  104 1    
    72   35   36 2    
    73   37   38 2    
    74   37   39 am   BACKBONE|DICT|INTERRES
    75   39   40 1    
    76   39  105 1    
    77   40   41 1    
    78   40   42 1    
    79   40  106 1    
    80   41  107 1    
    81   41  108 1    
    82   41  109 1    
    83   42   43 2    
    84   42   44 am   BACKBONE|DICT|INTERRES
    85   44   45 1    
    86   44  110 1    
    87   45   46 1    
    88   45   47 1    
    89   45  111 1    
    90   46  112 1    
    91   46  113 1    
    92   46  114 1    
    93   47   48 2    
    94   47   49 am   BACKBONE|DICT|INTERRES
    95   49   50 1    
    96   49  115 1    
    97   50   51 1    
    98   50   52 1    
    99   50  116 1    
   100   51  117 1    
   101   51  118 1    
   102   51  119 1    
   103   52   53 2    
   104   52   54 am   BACKBONE|DICT|INTERRES
   105   54   55 1    
   106   54  120 1    
   107   55   56 1    
   108   55   57 1    
   109   55  121 1    
   110   56  122 1    
   111   56  123 1    
   112   56  124 1    
   113   57   58 2    
   114   57   59 am   BACKBONE|DICT|INTERRES
   115   59   60 1    
   116   59  125 1    
   117   60   61 1    
   118   60   62 1    
   119   60  126 1    
   120   61  127 1    
   121   61  128 1    
   122   61  129 1    
   123   62   63 2    
   124   62   64 am   BACKBONE|DICT|INTERRES
   125   64   65 1    
   126   64  130 1    
   127   65   66 1    
   128   65   69 1    
   129   65  131 1    
   130   66   67 am   BACKBONE|DICT|INTERRES
   131   66   68 2    
   132   67  132 1    
   133   67  133 1    
   134   69   70 1    
   135   69  134 1    
   136   69  135 1    
   137   70   71 1    
   138   71  136 1    
   139   71  137 1    
@<TRIPOS>SUBSTRUCTURE
     1 UNK         1 GROUP             0       ****    0 ROOT    
