@<TRIPOS>MOLECULE
3R136
137   139    1
SMALL
USER_CHARGES


@<TRIPOS>ATOM
      1 CA         30.5422   24.2683    3.8787 C.3       0 UNK        -0.1979 
      2 C          29.5741   23.3763    3.1232 C.2       0 UNK         0.4864 
      3 O          28.4788   23.1017    3.6150 O.2       0 UNK        -0.5359 
      4 N          29.9784   22.9123    1.9351 N.am      1 UNK        -0.4318 
      5 CA         29.1838   22.0541    1.0566 C.3       1 UNK         0.0824 
      6 C6         30.0696   21.2838    0.0441 C.3       12 UNK        -0.0944 
      7 S7         31.3293   20.2560    0.8810 S.3       12 UNK        -0.2672 
      8 C8         32.8938   20.8807    0.1841 C.3       12 UNK         0.0333 
      9 C9         33.1981   22.3142    0.6011 C.ar      12 UNK        -0.0807 
     10 C10        33.7590   22.5891    1.8533 C.ar      12 UNK        -0.0894 
     11 C11        34.0733   23.9010    2.2304 C.ar      12 UNK        -0.0804 
     12 C12        33.8067   24.9427    1.3308 C.ar      12 UNK        -0.0824 
     13 C13        33.2302   24.6827    0.0841 C.ar      12 UNK        -0.0762 
     14 C14        32.9448   23.3663   -0.2815 C.ar      12 UNK        -0.0782 
     15 C15        32.8911   25.8290   -0.8599 C.3       12 UNK         0.0230 
     16 S16        31.0939   25.9758   -1.1307 S.3       12 UNK        -0.2608 
     17 C17        30.4767   26.2046    0.5705 C.3       12 UNK        -0.0989 
     18 CA         29.8702   27.6038    0.7962 C.3       5 UNK         0.0716 
     19 N          28.6114   27.7664    0.0700 N.am      5 UNK        -0.4135 
     20 C          28.3278   28.7730   -0.7656 C.2       4 UNK         0.5031 
     21 O          29.1282   29.6543   -1.0816 O.2       4 UNK        -0.5229 
     22 CA         26.9141   28.8030   -1.3814 C.3       4 UNK         0.0329 
     23 CB         26.9527   28.2980   -2.8334 C.3       4 UNK        -0.2001 
     24 N          25.9145   28.0302   -0.6378 N.am      4 UNK        -0.4303 
     25 C          25.4882   28.3110    0.6015 C.2       3 UNK         0.5044 
     26 O          25.8729   29.2751    1.2604 O.2       3 UNK        -0.5152 
     27 CA         24.4983   27.3195    1.2358 C.3       3 UNK         0.0319 
     28 CB         23.0528   27.7379    0.9235 C.3       3 UNK        -0.2001 
     29 N          24.6898   25.9129    0.8553 N.am      3 UNK        -0.4354 
     30 C          25.8263   25.2068    0.9567 C.2       2 UNK         0.4964 
     31 O          26.9068   25.6976    1.2957 O.2       2 UNK        -0.5047 
     32 CA         25.7019   23.7053    0.6373 C.3       2 UNK         0.0288 
     33 CB         25.2674   23.4565   -0.8243 C.3       2 UNK        -0.2113 
     34 N          26.9040   22.9379    0.9928 N.am      2 UNK        -0.4145 
     35 C          28.0876   22.8901    0.3628 C.2       1 UNK         0.5006 
     36 O          28.3431   23.4716   -0.6933 O.2       1 UNK        -0.5103 
     37 C          29.6672   27.8426    2.3022 C.2       5 UNK         0.5055 
     38 O          30.5831   28.3508    2.9462 O.2       5 UNK        -0.5220 
     39 N          28.5088   27.4472    2.8524 N.am      6 UNK        -0.4450 
     40 CA         28.1816   27.5934    4.2736 C.3       6 UNK         0.0367 
     41 CB         26.9464   26.7435    4.6060 C.3       6 UNK        -0.1929 
     42 C          27.9782   29.0540    4.7125 C.2       6 UNK         0.5070 
     43 O          28.2536   29.3732    5.8702 O.2       6 UNK        -0.5237 
     44 N          27.5192   29.9099    3.7926 N.am      7 UNK        -0.4739 
     45 CA         27.4084   31.3552    3.9663 C.3       7 UNK         0.0276 
     46 CB         25.9291   31.7592    3.8520 C.3       7 UNK        -0.1927 
     47 C          28.2439   32.0527    2.8846 C.2       7 UNK         0.5013 
     48 O          28.4491   31.4864    1.8094 O.2       7 UNK        -0.5193 
     49 N          28.6894   33.2811    3.1892 N.am      8 UNK        -0.4253 
     50 CA         29.4786   34.1778    2.3286 C.3       8 UNK         0.0242 
     51 CB         28.6479   34.6370    1.1101 C.3       8 UNK        -0.2000 
     52 C          30.8642   33.6245    1.9263 C.2       8 UNK         0.4948 
     53 O          31.4112   34.0342    0.9003 O.2       8 UNK        -0.5275 
     54 N          31.4230   32.7321    2.7502 N.am      9 UNK        -0.4246 
     55 CA         32.7377   32.1174    2.6015 C.3       9 UNK         0.0261 
     56 CB         32.6806   30.9803    1.5634 C.3       9 UNK        -0.1959 
     57 C          33.1816   31.6065    3.9775 C.2       9 UNK         0.5033 
     58 O          32.3561   31.5141    4.8916 O.2       9 UNK        -0.5390 
     59 N          34.4753   31.2799    4.1014 N.am      10 UNK        -0.4215 
     60 CA         35.1317   30.8606    5.3475 C.3       10 UNK         0.0240 
     61 CB         36.6372   30.6819    5.0902 C.3       10 UNK        -0.1982 
     62 C          34.5476   29.5930    5.9994 C.2       10 UNK         0.4970 
     63 O          34.6323   29.4575    7.2208 O.2       10 UNK        -0.4916 
     64 N          33.9655   28.7028    5.1874 N.am      11 UNK        -0.4279 
     65 CA         33.2532   27.4997    5.6425 C.3       11 UNK         0.1003 
     66 C          31.8037   27.7715    6.1489 C.2       11 UNK         0.5709 
     67 N          31.2820   28.9917    6.0900 N.am      11 UNK        -0.7358 
     68 O          31.1409   26.8504    6.6197 O.2       11 UNK        -0.4999 
     69 C69        33.2799   26.3782    4.5705 C.3       12 UNK        -0.0954 
     70 S70        34.9704   25.8707    4.1076 S.3       12 UNK        -0.2268 
     71 C71        34.7153   24.1287    3.6042 C.3       12 UNK         0.0203 
     72 H72        31.4398   24.4635    3.2946 H         1 UNK         0.0888 
     73 H73        30.0749   25.2227    4.1130 H         1 UNK         0.0888 
     74 H74        30.8383   23.7949    4.8142 H         1 UNK         0.0888 
     75 H75        30.8968   23.1484    1.5856 H         1 UNK         0.3017 
     76 H76        28.6883   21.3034    1.6769 H         1 UNK         0.0873 
     77 H77        29.4522   20.6210   -0.5648 H         1 UNK         0.0745 
     78 H78        30.5492   21.9689   -0.6552 H         1 UNK         0.0745 
     79 H79        33.7057   20.2306    0.5136 H         1 UNK         0.0705 
     80 H80        32.8621   20.7936   -0.9032 H         1 UNK         0.0705 
     81 H81        33.9623   21.7729    2.5337 H         1 UNK         0.1334 
     82 H82        34.0358   25.9655    1.5910 H         1 UNK         0.1417 
     83 H83        32.5108   23.1680   -1.2524 H         1 UNK         0.1562 
     84 H84        33.3836   25.6640   -1.8191 H         1 UNK         0.0748 
     85 H85        33.2700   26.7782   -0.4776 H         1 UNK         0.0748 
     86 H86        29.7308   25.4336    0.7653 H         1 UNK         0.0940 
     87 H87        31.2849   26.0269    1.2795 H         1 UNK         0.0940 
     88 H88        30.5976   28.3467    0.4614 H         1 UNK         0.0703 
     89 H89        27.8980   27.0702    0.2563 H         1 UNK         0.3081 
     90 H90        26.5888   29.8455   -1.3880 H         1 UNK         0.0719 
     91 H91        27.2576   27.2519   -2.8880 H         1 UNK         0.0809 
     92 H92        25.9790   28.3922   -3.3145 H         1 UNK         0.0809 
     93 H93        27.6626   28.8747   -3.4282 H         1 UNK         0.0809 
     94 H94        25.5439   27.2081   -1.0919 H         1 UNK         0.2990 
     95 H95        24.6341   27.3792    2.3160 H         1 UNK         0.0690 
     96 H96        22.3343   27.1240    1.4671 H         1 UNK         0.0788 
     97 H97        22.8291   27.6558   -0.1409 H         1 UNK         0.0788 
     98 H98        22.8743   28.7741    1.2152 H         1 UNK         0.0788 
     99 H99        23.8566   25.4245    0.5596 H         1 UNK         0.2993 
    100 H100       24.9152   23.3180    1.2868 H         1 UNK         0.0949 
    101 H101       25.2507   22.3916   -1.0571 H         1 UNK         0.0767 
    102 H102       24.2633   23.8386   -1.0102 H         1 UNK         0.0767 
    103 H103       25.9323   23.9444   -1.5378 H         1 UNK         0.0767 
    104 H104       26.8666   22.5015    1.9052 H         1 UNK         0.3013 
    105 H105       27.8323   26.9486    2.2798 H         1 UNK         0.3121 
    106 H106       29.0211   27.2018    4.8501 H         1 UNK         0.0774 
    107 H107       26.0591   27.1037    4.0878 H         1 UNK         0.0815 
    108 H108       26.7327   26.7723    5.6752 H         1 UNK         0.0815 
    109 H109       27.0970   25.6983    4.3330 H         1 UNK         0.0815 
    110 H110       27.3439   29.5807    2.8486 H         1 UNK         0.2987 
    111 H111       27.7871   31.6560    4.9458 H         1 UNK         0.0949 
    112 H112       25.5172   31.5052    2.8743 H         1 UNK         0.0806 
    113 H113       25.3236   31.2605    4.6090 H         1 UNK         0.0806 
    114 H114       25.8026   32.8336    3.9907 H         1 UNK         0.0806 
    115 H115       28.4660   33.6520    4.1030 H         1 UNK         0.3010 
    116 H116       29.6841   35.0637    2.9314 H         1 UNK         0.0829 
    117 H117       27.6845   35.0445    1.4163 H         1 UNK         0.0813 
    118 H118       29.1656   35.4191    0.5535 H         1 UNK         0.0813 
    119 H119       28.4606   33.8161    0.4170 H         1 UNK         0.0813 
    120 H120       30.9475   32.4687    3.6051 H         1 UNK         0.3038 
    121 H121       33.4502   32.8780    2.2752 H         1 UNK         0.0769 
    122 H122       31.9518   30.2218    1.8449 H         1 UNK         0.0811 
    123 H123       33.6463   30.4856    1.4558 H         1 UNK         0.0811 
    124 H124       32.4001   31.3552    0.5790 H         1 UNK         0.0811 
    125 H125       35.0748   31.3813    3.2945 H         1 UNK         0.3204 
    126 H126       35.0043   31.6732    6.0658 H         1 UNK         0.0748 
    127 H127       37.1595   30.3990    6.0055 H         1 UNK         0.0771 
    128 H128       36.8306   29.9028    4.3515 H         1 UNK         0.0771 
    129 H129       37.0932   31.6059    4.7338 H         1 UNK         0.0771 
    130 H130       33.9274   28.8949    4.1984 H         1 UNK         0.2980 
    131 H131       33.7873   27.1119    6.5121 H         1 UNK         0.0545 
    132 H132       30.3212   29.1282    6.3731 H         1 UNK         0.3459 
    133 H133       31.7952   29.7652    5.6825 H         1 UNK         0.3459 
    134 H134       32.7686   25.4974    4.9579 H         1 UNK         0.0616 
    135 H135       32.7423   26.6872    3.6725 H         1 UNK         0.0616 
    136 H136       35.6914   23.6420    3.6023 H         1 UNK         0.0634 
    137 H137       34.1250   23.6226    4.3695 H         1 UNK         0.0634 
@<TRIPOS>BOND
     1    1    2 1    
     2    1   72 1    
     3    1   73 1    
     4    1   74 1    
     5    2    3 2    
     6    2    4 am   BACKBONE|DICT|INTERRES
     7    4    5 1    
     8    4   75 1    
     9    5    6 1    
    10    5   35 1    
    11    5   76 1    
    12    6    7 1    
    13    6   77 1    
    14    6   78 1    
    15    7    8 1    
    16    8    9 1    
    17    8   79 1    
    18    8   80 1    
    19    9   10 ar   
    20    9   14 ar   
    21   10   11 ar   
    22   10   81 1    
    23   11   12 ar   
    24   11   71 1    
    25   12   13 ar   
    26   12   82 1    
    27   13   14 ar   
    28   13   15 1    
    29   14   83 1    
    30   15   16 1    
    31   15   84 1    
    32   15   85 1    
    33   16   17 1    
    34   17   18 1    
    35   17   86 1    
    36   17   87 1    
    37   18   19 1    
    38   18   37 1    
    39   18   88 1    
    40   19   20 am   BACKBONE|DICT|INTERRES
    41   19   89 1    
    42   20   21 2    
    43   20   22 1    
    44   22   23 1    
    45   22   24 1    
    46   22   90 1    
    47   23   91 1    
    48   23   92 1    
    49   23   93 1    
    50   24   25 am   BACKBONE|DICT|INTERRES
    51   24   94 1    
    52   25   26 2    
    53   25   27 1    
    54   27   28 1    
    55   27   29 1    
    56   27   95 1    
    57   28   96 1    
    58   28   97 1    
    59   28   98 1    
    60   29   30 am   BACKBONE|DICT|INTERRES
    61   29   99 1    
    62   30   31 2    
    63   30   32 1    
    64   32   33 1    
    65   32   34 1    
    66   32  100 1    
    67   33  101 1    
    68   33  102 1    
    69   33  103 1    
    70   34   35 am   BACKBONE|DICT|INTERRES
    71   34  104 1    
    72   35   36 2    
    73   37   38 2    
    74   37   39 am   BACKBONE|DICT|INTERRES
    75   39   40 1    
    76   39  105 1    
    77   40   41 1    
    78   40   42 1    
    79   40  106 1    
    80   41  107 1    
    81   41  108 1    
    82   41  109 1    
    83   42   43 2    
    84   42   44 am   BACKBONE|DICT|INTERRES
    85   44   45 1    
    86   44  110 1    
    87   45   46 1    
    88   45   47 1    
    89   45  111 1    
    90   46  112 1    
    91   46  113 1    
    92   46  114 1    
    93   47   48 2    
    94   47   49 am   BACKBONE|DICT|INTERRES
    95   49   50 1    
    96   49  115 1    
    97   50   51 1    
    98   50   52 1    
    99   50  116 1    
   100   51  117 1    
   101   51  118 1    
   102   51  119 1    
   103   52   53 2    
   104   52   54 am   BACKBONE|DICT|INTERRES
   105   54   55 1    
   106   54  120 1    
   107   55   56 1    
   108   55   57 1    
   109   55  121 1    
   110   56  122 1    
   111   56  123 1    
   112   56  124 1    
   113   57   58 2    
   114   57   59 am   BACKBONE|DICT|INTERRES
   115   59   60 1    
   116   59  125 1    
   117   60   61 1    
   118   60   62 1    
   119   60  126 1    
   120   61  127 1    
   121   61  128 1    
   122   61  129 1    
   123   62   63 2    
   124   62   64 am   BACKBONE|DICT|INTERRES
   125   64   65 1    
   126   64  130 1    
   127   65   66 1    
   128   65   69 1    
   129   65  131 1    
   130   66   67 am   BACKBONE|DICT|INTERRES
   131   66   68 2    
   132   67  132 1    
   133   67  133 1    
   134   69   70 1    
   135   69  134 1    
   136   69  135 1    
   137   70   71 1    
   138   71  136 1    
   139   71  137 1    
@<TRIPOS>SUBSTRUCTURE
     1 UNK         1 GROUP             0       ****    0 ROOT    
