@<TRIPOS>MOLECULE
3R136
137   139    1
SMALL
USER_CHARGES


@<TRIPOS>ATOM
      1 CA         27.1226   21.7256    3.0211 C.3       0 UNK        -0.1979 
      2 C          27.5297   22.2461    1.6520 C.2       0 UNK         0.4864 
      3 O          27.5711   23.4597    1.4383 O.2       0 UNK        -0.5359 
      4 N          27.8063   21.3235    0.7190 N.am      1 UNK        -0.4318 
      5 CA         28.1357   21.5831   -0.6900 C.3       1 UNK         0.0824 
      6 C6         29.5164   22.2790   -0.8775 C.3       12 UNK        -0.0944 
      7 S7         30.8761   21.2731   -0.1923 S.3       12 UNK        -0.2672 
      8 C8         32.2809   22.4423   -0.2267 C.3       12 UNK         0.0333 
      9 C9         32.2987   23.4820    0.8962 C.ar      12 UNK        -0.0807 
     10 C10        32.8969   24.7257    0.6587 C.ar      12 UNK        -0.0894 
     11 C11        32.9548   25.6940    1.6657 C.ar      12 UNK        -0.0804 
     12 C12        32.4294   25.4082    2.9265 C.ar      12 UNK        -0.0824 
     13 C13        31.8323   24.1740    3.1851 C.ar      12 UNK        -0.0762 
     14 C14        31.7745   23.2133    2.1688 C.ar      12 UNK        -0.0782 
     15 C15        31.2636   23.8706    4.5641 C.3       12 UNK         0.0230 
     16 S16        29.4451   23.8584    4.5432 S.3       12 UNK        -0.2608 
     17 C17        28.9810   25.4953    5.2062 C.3       12 UNK        -0.0989 
     18 CA         29.3441   26.7143    4.3186 C.3       5 UNK         0.0716 
     19 N          29.0490   26.5027    2.8976 N.am      5 UNK        -0.4135 
     20 C          29.3999   27.3490    1.9190 C.2       4 UNK         0.5031 
     21 O          30.0293   28.3874    2.1050 O.2       4 UNK        -0.5229 
     22 CA         28.9107   27.0323    0.5020 C.3       4 UNK         0.0329 
     23 CB         29.9780   26.2680   -0.2877 C.3       4 UNK        -0.2001 
     24 N          27.6552   26.2858    0.4722 N.am      4 UNK        -0.4303 
     25 C          26.4655   26.7325    0.8970 C.2       3 UNK         0.5044 
     26 O          26.3186   27.7942    1.5076 O.2       3 UNK        -0.5152 
     27 CA         25.2476   25.8326    0.5943 C.3       3 UNK         0.0319 
     28 CB         23.9401   26.6396    0.4548 C.3       3 UNK        -0.2001 
     29 N          25.4575   24.9500   -0.5664 N.am      3 UNK        -0.4354 
     30 C          25.7137   25.3084   -1.8363 C.2       2 UNK         0.4964 
     31 O          25.6702   26.4713   -2.2404 O.2       2 UNK        -0.5047 
     32 CA         26.1599   24.1815   -2.7944 C.3       2 UNK         0.0288 
     33 CB         26.6944   24.7200   -4.1357 C.3       2 UNK        -0.2113 
     34 N          27.1936   23.3363   -2.1817 N.am      2 UNK        -0.4145 
     35 C          26.9446   22.2898   -1.3825 C.2       1 UNK         0.5006 
     36 O          25.7992   21.8934   -1.1492 O.2       1 UNK        -0.5103 
     37 C          28.6838   27.9947    4.8813 C.2       5 UNK         0.5055 
     38 O          29.2178   28.5776    5.8256 O.2       5 UNK        -0.5220 
     39 N          27.5443   28.4010    4.3005 N.am      6 UNK        -0.4450 
     40 CA         26.8299   29.6306    4.6357 C.3       6 UNK         0.0367 
     41 CB         25.3183   29.3493    4.6685 C.3       6 UNK        -0.1929 
     42 C          27.1478   30.7462    3.6301 C.2       6 UNK         0.5070 
     43 O          27.3971   31.8769    4.0474 O.2       6 UNK        -0.5237 
     44 N          27.1215   30.4230    2.3277 N.am      7 UNK        -0.4739 
     45 CA         27.3042   31.3841    1.2344 C.3       7 UNK         0.0276 
     46 CB         26.8890   30.7356   -0.0956 C.3       7 UNK        -0.1927 
     47 C          28.7263   31.9634    1.1387 C.2       7 UNK         0.5013 
     48 O          28.8742   33.1207    0.7441 O.2       7 UNK        -0.5193 
     49 N          29.7361   31.1695    1.5118 N.am      8 UNK        -0.4253 
     50 CA         31.1389   31.5617    1.5889 C.3       8 UNK         0.0242 
     51 CB         31.9392   30.8142    0.5046 C.3       8 UNK        -0.2000 
     52 C          31.6311   31.2577    3.0084 C.2       8 UNK         0.4948 
     53 O          32.5168   30.4229    3.1919 O.2       8 UNK        -0.5275 
     54 N          31.0420   31.9414    3.9998 N.am      9 UNK        -0.4246 
     55 CA         31.2811   31.7500    5.4380 C.3       9 UNK         0.0261 
     56 CB         30.3509   32.6840    6.2290 C.3       9 UNK        -0.1959 
     57 C          32.7418   31.9221    5.9055 C.2       9 UNK         0.5033 
     58 O          33.0929   31.4032    6.9659 O.2       9 UNK        -0.5390 
     59 N          33.5701   32.6221    5.1161 N.am      10 UNK        -0.4215 
     60 CA         35.0214   32.7151    5.3059 C.3       10 UNK         0.0240 
     61 CB         35.5836   33.8235    4.4010 C.3       10 UNK        -0.1982 
     62 C          35.7479   31.3808    5.0414 C.2       10 UNK         0.4970 
     63 O          36.7600   31.1098    5.6884 O.2       10 UNK        -0.4916 
     64 N          35.2170   30.5785    4.1105 N.am      11 UNK        -0.4279 
     65 CA         35.6137   29.1890    3.8573 C.3       11 UNK         0.1003 
     66 C          34.8244   28.2358    4.8010 C.2       11 UNK         0.5709 
     67 N          33.5122   28.3977    4.9252 N.am      11 UNK        -0.7358 
     68 O          35.4106   27.3697    5.4462 O.2       11 UNK        -0.4999 
     69 C69        35.5016   28.8651    2.3332 C.3       12 UNK        -0.0954 
     70 S70        35.3212   27.1068    1.8612 S.3       12 UNK        -0.2268 
     71 C71        33.5605   27.0620    1.4016 C.3       12 UNK         0.0203 
     72 H72        26.3994   20.9153    2.9318 H         1 UNK         0.0888 
     73 H73        27.9947   21.3550    3.5588 H         1 UNK         0.0888 
     74 H74        26.6685   22.5199    3.6132 H         1 UNK         0.0888 
     75 H75        27.7311   20.3467    0.9644 H         1 UNK         0.3017 
     76 H76        28.1975   20.6048   -1.1692 H         1 UNK         0.0873 
     77 H77        29.7357   22.4397   -1.9344 H         1 UNK         0.0745 
     78 H78        29.5252   23.2561   -0.3964 H         1 UNK         0.0745 
     79 H79        33.2038   21.8648   -0.1625 H         1 UNK         0.0705 
     80 H80        32.2956   22.9354   -1.2000 H         1 UNK         0.0705 
     81 H81        33.3130   24.9463   -0.3149 H         1 UNK         0.1334 
     82 H82        32.4873   26.1542    3.7054 H         1 UNK         0.1417 
     83 H83        31.3182   22.2557    2.3772 H         1 UNK         0.1562 
     84 H84        31.6258   24.5819    5.3080 H         1 UNK         0.0748 
     85 H85        31.6158   22.8893    4.8852 H         1 UNK         0.0748 
     86 H86        29.4292   25.6054    6.1957 H         1 UNK         0.0940 
     87 H87        27.9024   25.4611    5.3738 H         1 UNK         0.0940 
     88 H88        30.4205   26.8710    4.3938 H         1 UNK         0.0703 
     89 H89        28.5640   25.6483    2.6560 H         1 UNK         0.3081 
     90 H90        28.7389   27.9828   -0.0037 H         1 UNK         0.0719 
     91 H91        30.2120   25.3198    0.1929 H         1 UNK         0.0809 
     92 H92        29.6566   26.0653   -1.3093 H         1 UNK         0.0809 
     93 H93        30.9031   26.8428   -0.3453 H         1 UNK         0.0809 
     94 H94        27.6902   25.3426    0.1106 H         1 UNK         0.2990 
     95 H95        25.1411   25.1748    1.4580 H         1 UNK         0.0690 
     96 H96        23.0919   25.9884    0.2443 H         1 UNK         0.0788 
     97 H97        24.0035   27.3793   -0.3438 H         1 UNK         0.0788 
     98 H98        23.7136   27.1782    1.3758 H         1 UNK         0.0788 
     99 H99        25.5246   23.9625   -0.3481 H         1 UNK         0.2993 
    100 H100       25.2745   23.5793   -3.0109 H         1 UNK         0.0949 
    101 H101       27.5659   25.3610   -3.9957 H         1 UNK         0.0767 
    102 H102       26.9792   23.9070   -4.8039 H         1 UNK         0.0767 
    103 H103       25.9349   25.3086   -4.6524 H         1 UNK         0.0767 
    104 H104       28.1508   23.6234   -2.3245 H         1 UNK         0.3013 
    105 H105       27.1965   27.8850    3.5013 H         1 UNK         0.3121 
    106 H106       27.1269   29.9803    5.6270 H         1 UNK         0.0774 
    107 H107       24.9492   28.9881    3.7076 H         1 UNK         0.0815 
    108 H108       24.7592   30.2532    4.9140 H         1 UNK         0.0815 
    109 H109       25.0723   28.6019    5.4229 H         1 UNK         0.0815 
    110 H110       26.8723   29.4736    2.0581 H         1 UNK         0.2987 
    111 H111       26.6298   32.2228    1.4214 H         1 UNK         0.0949 
    112 H112       27.5285   29.8923   -0.3522 H         1 UNK         0.0806 
    113 H113       25.8608   30.3750   -0.0584 H         1 UNK         0.0806 
    114 H114       26.9520   31.4526   -0.9153 H         1 UNK         0.0806 
    115 H115       29.5422   30.2224    1.8305 H         1 UNK         0.3010 
    116 H116       31.2577   32.6349    1.4264 H         1 UNK         0.0829 
    117 H117       31.5785   31.0620   -0.4935 H         1 UNK         0.0813 
    118 H118       32.9960   31.0807    0.5452 H         1 UNK         0.0813 
    119 H119       31.8705   29.7325    0.6252 H         1 UNK         0.0813 
    120 H120       30.3047   32.5877    3.7544 H         1 UNK         0.3038 
    121 H121       31.0010   30.7200    5.6684 H         1 UNK         0.0769 
    122 H122       30.5468   33.7333    6.0053 H         1 UNK         0.0811 
    123 H123       30.4817   32.5489    7.3037 H         1 UNK         0.0811 
    124 H124       29.3031   32.4810    6.0068 H         1 UNK         0.0811 
    125 H125       33.1890   33.0359    4.2781 H         1 UNK         0.3204 
    126 H126       35.2100   32.9933    6.3451 H         1 UNK         0.0748 
    127 H127       36.6602   33.9318    4.5411 H         1 UNK         0.0771 
    128 H128       35.4125   33.6106    3.3449 H         1 UNK         0.0771 
    129 H129       35.1308   34.7890    4.6277 H         1 UNK         0.0771 
    130 H130       34.3308   30.8407    3.6917 H         1 UNK         0.2980 
    131 H131       36.6668   29.0727    4.1210 H         1 UNK         0.0545 
    132 H132       32.9978   27.8204    5.5682 H         1 UNK         0.3459 
    133 H133       33.0364   29.0976    4.3610 H         1 UNK         0.3459 
    134 H134       36.3858   29.2518    1.8250 H         1 UNK         0.0616 
    135 H135       34.6680   29.4147    1.8936 H         1 UNK         0.0616 
    136 H136       33.4541   27.3355    0.3510 H         1 UNK         0.0634 
    137 H137       33.0040   27.8097    1.9700 H         1 UNK         0.0634 
@<TRIPOS>BOND
     1    1    2 1    
     2    1   72 1    
     3    1   73 1    
     4    1   74 1    
     5    2    3 2    
     6    2    4 am   BACKBONE|DICT|INTERRES
     7    4    5 1    
     8    4   75 1    
     9    5    6 1    
    10    5   35 1    
    11    5   76 1    
    12    6    7 1    
    13    6   77 1    
    14    6   78 1    
    15    7    8 1    
    16    8    9 1    
    17    8   79 1    
    18    8   80 1    
    19    9   10 ar   
    20    9   14 ar   
    21   10   11 ar   
    22   10   81 1    
    23   11   12 ar   
    24   11   71 1    
    25   12   13 ar   
    26   12   82 1    
    27   13   14 ar   
    28   13   15 1    
    29   14   83 1    
    30   15   16 1    
    31   15   84 1    
    32   15   85 1    
    33   16   17 1    
    34   17   18 1    
    35   17   86 1    
    36   17   87 1    
    37   18   19 1    
    38   18   37 1    
    39   18   88 1    
    40   19   20 am   BACKBONE|DICT|INTERRES
    41   19   89 1    
    42   20   21 2    
    43   20   22 1    
    44   22   23 1    
    45   22   24 1    
    46   22   90 1    
    47   23   91 1    
    48   23   92 1    
    49   23   93 1    
    50   24   25 am   BACKBONE|DICT|INTERRES
    51   24   94 1    
    52   25   26 2    
    53   25   27 1    
    54   27   28 1    
    55   27   29 1    
    56   27   95 1    
    57   28   96 1    
    58   28   97 1    
    59   28   98 1    
    60   29   30 am   BACKBONE|DICT|INTERRES
    61   29   99 1    
    62   30   31 2    
    63   30   32 1    
    64   32   33 1    
    65   32   34 1    
    66   32  100 1    
    67   33  101 1    
    68   33  102 1    
    69   33  103 1    
    70   34   35 am   BACKBONE|DICT|INTERRES
    71   34  104 1    
    72   35   36 2    
    73   37   38 2    
    74   37   39 am   BACKBONE|DICT|INTERRES
    75   39   40 1    
    76   39  105 1    
    77   40   41 1    
    78   40   42 1    
    79   40  106 1    
    80   41  107 1    
    81   41  108 1    
    82   41  109 1    
    83   42   43 2    
    84   42   44 am   BACKBONE|DICT|INTERRES
    85   44   45 1    
    86   44  110 1    
    87   45   46 1    
    88   45   47 1    
    89   45  111 1    
    90   46  112 1    
    91   46  113 1    
    92   46  114 1    
    93   47   48 2    
    94   47   49 am   BACKBONE|DICT|INTERRES
    95   49   50 1    
    96   49  115 1    
    97   50   51 1    
    98   50   52 1    
    99   50  116 1    
   100   51  117 1    
   101   51  118 1    
   102   51  119 1    
   103   52   53 2    
   104   52   54 am   BACKBONE|DICT|INTERRES
   105   54   55 1    
   106   54  120 1    
   107   55   56 1    
   108   55   57 1    
   109   55  121 1    
   110   56  122 1    
   111   56  123 1    
   112   56  124 1    
   113   57   58 2    
   114   57   59 am   BACKBONE|DICT|INTERRES
   115   59   60 1    
   116   59  125 1    
   117   60   61 1    
   118   60   62 1    
   119   60  126 1    
   120   61  127 1    
   121   61  128 1    
   122   61  129 1    
   123   62   63 2    
   124   62   64 am   BACKBONE|DICT|INTERRES
   125   64   65 1    
   126   64  130 1    
   127   65   66 1    
   128   65   69 1    
   129   65  131 1    
   130   66   67 am   BACKBONE|DICT|INTERRES
   131   66   68 2    
   132   67  132 1    
   133   67  133 1    
   134   69   70 1    
   135   69  134 1    
   136   69  135 1    
   137   70   71 1    
   138   71  136 1    
   139   71  137 1    
@<TRIPOS>SUBSTRUCTURE
     1 UNK         1 GROUP             0       ****    0 ROOT    
