@<TRIPOS>MOLECULE
3R136
137   139    1
SMALL
USER_CHARGES


@<TRIPOS>ATOM
      1 CA         31.5771   19.5558   -1.8214 C.3       0 UNK        -0.1979 
      2 C          31.8495   20.9874   -1.3851 C.2       0 UNK         0.4864 
      3 O          32.4146   21.7672   -2.1542 O.2       0 UNK        -0.5359 
      4 N          31.4466   21.3460   -0.1597 N.am      1 UNK        -0.4318 
      5 CA         31.5974   22.6720    0.4516 C.3       1 UNK         0.0824 
      6 C6         31.6062   22.5898    2.0036 C.3       12 UNK        -0.0944 
      7 S7         30.2544   21.6017    2.7301 S.3       12 UNK        -0.2672 
      8 C8         30.6818   21.7040    4.4956 C.3       12 UNK         0.0333 
      9 C9         30.1716   22.9874    5.1368 C.ar      12 UNK        -0.0807 
     10 C10        31.0256   24.0780    5.3413 C.ar      12 UNK        -0.0894 
     11 C11        30.5589   25.2292    5.9858 C.ar      12 UNK        -0.0804 
     12 C12        29.2370   25.2780    6.4342 C.ar      12 UNK        -0.0824 
     13 C13        28.3669   24.2076    6.2118 C.ar      12 UNK        -0.0762 
     14 C14        28.8414   23.0648    5.5620 C.ar      12 UNK        -0.0782 
     15 C15        26.9236   24.2722    6.6931 C.3       12 UNK         0.0230 
     16 S16        25.8459   25.1495    5.5134 S.3       12 UNK        -0.2608 
     17 C17        26.2607   26.8938    5.8580 C.3       12 UNK        -0.0989 
     18 CA         27.1254   27.5284    4.7351 C.3       5 UNK         0.0716 
     19 N          26.3647   27.6197    3.4844 N.am      5 UNK        -0.4135 
     20 C          26.8421   27.3866    2.2582 C.2       4 UNK         0.5031 
     21 O          28.0214   27.1355    1.9982 O.2       4 UNK        -0.5229 
     22 CA         25.8176   27.4985    1.1254 C.3       4 UNK         0.0329 
     23 CB         25.6676   28.9574    0.6525 C.3       4 UNK        -0.2001 
     24 N          26.2276   26.6432    0.0161 N.am      4 UNK        -0.4303 
     25 C          25.4055   26.1609   -0.9257 C.2       3 UNK         0.5044 
     26 O          24.1982   26.4061   -0.9575 O.2       3 UNK        -0.5152 
     27 CA         26.0163   25.2618   -2.0163 C.3       3 UNK         0.0319 
     28 CB         25.3886   25.5146   -3.4007 C.3       3 UNK        -0.2001 
     29 N          27.4674   25.4326   -2.1077 N.am      3 UNK        -0.4354 
     30 C          28.3592   24.4391   -2.1909 C.2       2 UNK         0.4964 
     31 O          28.0527   23.2458   -2.2480 O.2       2 UNK        -0.5047 
     32 CA         29.8486   24.8369   -2.2431 C.3       2 UNK         0.0288 
     33 CB         30.1290   26.3122   -1.8689 C.3       2 UNK        -0.2113 
     34 N          30.6792   23.9353   -1.4381 N.am      2 UNK        -0.4145 
     35 C          30.5903   23.6988   -0.1205 C.2       1 UNK         0.5006 
     36 O          29.7766   24.2529    0.6208 O.2       1 UNK        -0.5103 
     37 C          27.6995   28.8949    5.1771 C.2       5 UNK         0.5055 
     38 O          28.1415   29.0176    6.3211 O.2       5 UNK        -0.5220 
     39 N          27.6638   29.9080    4.2992 N.am      6 UNK        -0.4450 
     40 CA         28.1937   31.2485    4.5500 C.3       6 UNK         0.0367 
     41 CB         27.6935   32.2027    3.4520 C.3       6 UNK        -0.1929 
     42 C          29.7294   31.2251    4.6051 C.2       6 UNK         0.5070 
     43 O          30.3623   30.9662    3.5811 O.2       6 UNK        -0.5237 
     44 N          30.2987   31.4892    5.7883 N.am      7 UNK        -0.4739 
     45 CA         31.7431   31.4858    6.0411 C.3       7 UNK         0.0276 
     46 CB         32.0013   31.7936    7.5244 C.3       7 UNK        -0.1927 
     47 C          32.4969   32.4802    5.1420 C.2       7 UNK         0.5013 
     48 O          32.0481   33.6190    4.9890 O.2       7 UNK        -0.5193 
     49 N          33.6045   32.0184    4.5453 N.am      8 UNK        -0.4253 
     50 CA         34.4850   32.6988    3.5813 C.3       8 UNK         0.0242 
     51 CB         35.1169   33.9683    4.1861 C.3       8 UNK        -0.2000 
     52 C          33.8447   32.9974    2.2101 C.2       8 UNK         0.4948 
     53 O          34.5330   32.8766    1.1960 O.2       8 UNK        -0.5275 
     54 N          32.5605   33.3763    2.1892 N.am      9 UNK        -0.4246 
     55 CA         31.7706   33.6243    0.9813 C.3       9 UNK         0.0261 
     56 CB         30.4718   34.3516    1.3635 C.3       9 UNK        -0.1959 
     57 C          31.4617   32.3364    0.1985 C.2       9 UNK         0.5033 
     58 O          31.5003   32.3551   -1.0330 O.2       9 UNK        -0.5390 
     59 N          31.1686   31.2527    0.9241 N.am      10 UNK        -0.4215 
     60 CA         30.9219   29.9111    0.4107 C.3       10 UNK         0.0240 
     61 CB         29.4112   29.6215    0.4772 C.3       10 UNK        -0.1982 
     62 C          31.8093   28.9300    1.1973 C.2       10 UNK         0.4970 
     63 O          33.0025   29.2081    1.3414 O.2       10 UNK        -0.4916 
     64 N          31.2462   27.8072    1.6690 N.am      11 UNK        -0.4279 
     65 CA         31.9676   26.6935    2.3145 C.3       11 UNK         0.1003 
     66 C          33.0044   26.0083    1.3653 C.2       11 UNK         0.5709 
     67 N          33.9376   25.2212    1.8874 N.am      11 UNK        -0.7358 
     68 O          32.9478   26.1335    0.1442 O.2       11 UNK        -0.4999 
     69 C69        32.5725   27.0743    3.7006 C.3       12 UNK        -0.0954 
     70 S70        31.3356   27.6619    4.9031 S.3       12 UNK        -0.2268 
     71 C71        31.4729   26.4209    6.2298 C.3       12 UNK         0.0203 
     72 H72        32.5125   19.0553   -2.0701 H         1 UNK         0.0888 
     73 H73        31.0811   18.9793   -1.0408 H         1 UNK         0.0888 
     74 H74        30.9402   19.5483   -2.7056 H         1 UNK         0.0888 
     75 H75        30.9599   20.6752    0.4192 H         1 UNK         0.3017 
     76 H76        32.5811   23.0511    0.1650 H         1 UNK         0.0873 
     77 H77        32.5484   22.1429    2.3244 H         1 UNK         0.0745 
     78 H78        31.5897   23.5838    2.4500 H         1 UNK         0.0745 
     79 H79        31.7612   21.6094    4.6241 H         1 UNK         0.0705 
     80 H80        30.2437   20.8463    5.0083 H         1 UNK         0.0705 
     81 H81        32.0538   24.0258    5.0114 H         1 UNK         0.1334 
     82 H82        28.8864   26.1623    6.9474 H         1 UNK         0.1417 
     83 H83        28.1782   22.2265    5.3959 H         1 UNK         0.1562 
     84 H84        26.8714   24.7460    7.6745 H         1 UNK         0.0748 
     85 H85        26.5330   23.2626    6.8304 H         1 UNK         0.0748 
     86 H86        26.7526   26.9499    6.8297 H         1 UNK         0.0940 
     87 H87        25.3290   27.4494    5.9791 H         1 UNK         0.0940 
     88 H88        27.9929   26.8867    4.5687 H         1 UNK         0.0703 
     89 H89        25.3833   27.8345    3.5875 H         1 UNK         0.3081 
     90 H90        24.8565   27.1427    1.5041 H         1 UNK         0.0719 
     91 H91        26.5875   29.3332    0.2061 H         1 UNK         0.0809 
     92 H92        24.8770   29.0527   -0.0920 H         1 UNK         0.0809 
     93 H93        25.4083   29.6195    1.4795 H         1 UNK         0.0809 
     94 H94        27.1941   26.3423    0.0526 H         1 UNK         0.2990 
     95 H95        25.7817   24.2380   -1.7179 H         1 UNK         0.0690 
     96 H96        25.8111   24.8492   -4.1538 H         1 UNK         0.0788 
     97 H97        25.5482   26.5412   -3.7324 H         1 UNK         0.0788 
     98 H98        24.3123   25.3381   -3.3854 H         1 UNK         0.0788 
     99 H99        27.8072   26.3841   -2.0845 H         1 UNK         0.2993 
    100 H100       30.1595   24.6930   -3.2789 H         1 UNK         0.0949 
    101 H101       29.8104   26.5398   -0.8514 H         1 UNK         0.0767 
    102 H102       31.1947   26.5323   -1.9321 H         1 UNK         0.0767 
    103 H103       29.6277   27.0049   -2.5457 H         1 UNK         0.0767 
    104 H104       31.3491   23.3688   -1.9524 H         1 UNK         0.3013 
    105 H105       27.3242   29.7205    3.3691 H         1 UNK         0.3121 
    106 H106       27.8047   31.6000    5.5082 H         1 UNK         0.0774 
    107 H107       28.0476   33.2182    3.6326 H         1 UNK         0.0815 
    108 H108       28.0438   31.9052    2.4625 H         1 UNK         0.0815 
    109 H109       26.6045   32.2418    3.4247 H         1 UNK         0.0815 
    110 H110       29.7030   31.6887    6.5786 H         1 UNK         0.2987 
    111 H111       32.1045   30.4772    5.8300 H         1 UNK         0.0949 
    112 H112       31.6284   32.7806    7.8016 H         1 UNK         0.0806 
    113 H113       31.5235   31.0582    8.1722 H         1 UNK         0.0806 
    114 H114       33.0690   31.7745    7.7473 H         1 UNK         0.0806 
    115 H115       33.8519   31.0540    4.7207 H         1 UNK         0.3010 
    116 H116       35.2965   31.9949    3.3890 H         1 UNK         0.0829 
    117 H117       35.6314   33.7487    5.1216 H         1 UNK         0.0813 
    118 H118       35.8530   34.3968    3.5045 H         1 UNK         0.0813 
    119 H119       34.3746   34.7418    4.3845 H         1 UNK         0.0813 
    120 H120       32.0957   33.4867    3.0865 H         1 UNK         0.3038 
    121 H121       32.3496   34.2800    0.3275 H         1 UNK         0.0769 
    122 H122       29.8621   34.5530    0.4816 H         1 UNK         0.0811 
    123 H123       30.6793   35.3097    1.8403 H         1 UNK         0.0811 
    124 H124       29.8680   33.7592    2.0508 H         1 UNK         0.0811 
    125 H125       31.1352   31.3227    1.9407 H         1 UNK         0.3204 
    126 H126       31.2395   29.8436   -0.6317 H         1 UNK         0.0748 
    127 H127       28.8470   30.3765   -0.0705 H         1 UNK         0.0771 
    128 H128       29.1680   28.6584    0.0299 H         1 UNK         0.0771 
    129 H129       29.0479   29.6207    1.5053 H         1 UNK         0.0771 
    130 H130       30.2535   27.6585    1.5385 H         1 UNK         0.2980 
    131 H131       31.2038   25.9356    2.4892 H         1 UNK         0.0545 
    132 H132       34.6026   24.7834    1.2699 H         1 UNK         0.3459 
    133 H133       34.0238   25.0964    2.8826 H         1 UNK         0.3459 
    134 H134       33.0873   26.2212    4.1411 H         1 UNK         0.0616 
    135 H135       33.3309   27.8502    3.5901 H         1 UNK         0.0616 
    136 H136       32.5081   26.0995    6.3509 H         1 UNK         0.0634 
    137 H137       31.2004   26.9002    7.1714 H         1 UNK         0.0634 
@<TRIPOS>BOND
     1    1    2 1    
     2    1   72 1    
     3    1   73 1    
     4    1   74 1    
     5    2    3 2    
     6    2    4 am   BACKBONE|DICT|INTERRES
     7    4    5 1    
     8    4   75 1    
     9    5    6 1    
    10    5   35 1    
    11    5   76 1    
    12    6    7 1    
    13    6   77 1    
    14    6   78 1    
    15    7    8 1    
    16    8    9 1    
    17    8   79 1    
    18    8   80 1    
    19    9   10 ar   
    20    9   14 ar   
    21   10   11 ar   
    22   10   81 1    
    23   11   12 ar   
    24   11   71 1    
    25   12   13 ar   
    26   12   82 1    
    27   13   14 ar   
    28   13   15 1    
    29   14   83 1    
    30   15   16 1    
    31   15   84 1    
    32   15   85 1    
    33   16   17 1    
    34   17   18 1    
    35   17   86 1    
    36   17   87 1    
    37   18   19 1    
    38   18   37 1    
    39   18   88 1    
    40   19   20 am   BACKBONE|DICT|INTERRES
    41   19   89 1    
    42   20   21 2    
    43   20   22 1    
    44   22   23 1    
    45   22   24 1    
    46   22   90 1    
    47   23   91 1    
    48   23   92 1    
    49   23   93 1    
    50   24   25 am   BACKBONE|DICT|INTERRES
    51   24   94 1    
    52   25   26 2    
    53   25   27 1    
    54   27   28 1    
    55   27   29 1    
    56   27   95 1    
    57   28   96 1    
    58   28   97 1    
    59   28   98 1    
    60   29   30 am   BACKBONE|DICT|INTERRES
    61   29   99 1    
    62   30   31 2    
    63   30   32 1    
    64   32   33 1    
    65   32   34 1    
    66   32  100 1    
    67   33  101 1    
    68   33  102 1    
    69   33  103 1    
    70   34   35 am   BACKBONE|DICT|INTERRES
    71   34  104 1    
    72   35   36 2    
    73   37   38 2    
    74   37   39 am   BACKBONE|DICT|INTERRES
    75   39   40 1    
    76   39  105 1    
    77   40   41 1    
    78   40   42 1    
    79   40  106 1    
    80   41  107 1    
    81   41  108 1    
    82   41  109 1    
    83   42   43 2    
    84   42   44 am   BACKBONE|DICT|INTERRES
    85   44   45 1    
    86   44  110 1    
    87   45   46 1    
    88   45   47 1    
    89   45  111 1    
    90   46  112 1    
    91   46  113 1    
    92   46  114 1    
    93   47   48 2    
    94   47   49 am   BACKBONE|DICT|INTERRES
    95   49   50 1    
    96   49  115 1    
    97   50   51 1    
    98   50   52 1    
    99   50  116 1    
   100   51  117 1    
   101   51  118 1    
   102   51  119 1    
   103   52   53 2    
   104   52   54 am   BACKBONE|DICT|INTERRES
   105   54   55 1    
   106   54  120 1    
   107   55   56 1    
   108   55   57 1    
   109   55  121 1    
   110   56  122 1    
   111   56  123 1    
   112   56  124 1    
   113   57   58 2    
   114   57   59 am   BACKBONE|DICT|INTERRES
   115   59   60 1    
   116   59  125 1    
   117   60   61 1    
   118   60   62 1    
   119   60  126 1    
   120   61  127 1    
   121   61  128 1    
   122   61  129 1    
   123   62   63 2    
   124   62   64 am   BACKBONE|DICT|INTERRES
   125   64   65 1    
   126   64  130 1    
   127   65   66 1    
   128   65   69 1    
   129   65  131 1    
   130   66   67 am   BACKBONE|DICT|INTERRES
   131   66   68 2    
   132   67  132 1    
   133   67  133 1    
   134   69   70 1    
   135   69  134 1    
   136   69  135 1    
   137   70   71 1    
   138   71  136 1    
   139   71  137 1    
@<TRIPOS>SUBSTRUCTURE
     1 UNK         1 GROUP             0       ****    0 ROOT    
