@<TRIPOS>MOLECULE
3R136
137   139    1
SMALL
USER_CHARGES


@<TRIPOS>ATOM
      1 CA         28.2282   20.7827   -0.1832 C.3       0 UNK        -0.1979 
      2 C          29.0473   22.0605   -0.0906 C.2       0 UNK         0.4864 
      3 O          28.6145   23.0135    0.5548 O.2       0 UNK        -0.5359 
      4 N          30.2247   22.0871   -0.7315 N.am      1 UNK        -0.4318 
      5 CA         31.2016   23.1884   -0.7896 C.3       1 UNK         0.0824 
      6 C6         31.7299   23.6525    0.5950 C.3       12 UNK        -0.0944 
      7 S7         32.7517   22.3775    1.4060 S.3       12 UNK        -0.2672 
      8 C8         31.5874   21.5981    2.5763 C.3       12 UNK         0.0333 
      9 C9         31.0536   22.5444    3.6472 C.ar      12 UNK        -0.0807 
     10 C10        31.9196   23.3785    4.3623 C.ar      12 UNK        -0.0894 
     11 C11        31.4308   24.2174    5.3669 C.ar      12 UNK        -0.0804 
     12 C12        30.0666   24.2117    5.6668 C.ar      12 UNK        -0.0824 
     13 C13        29.1895   23.3786    4.9657 C.ar      12 UNK        -0.0762 
     14 C14        29.6882   22.5510    3.9543 C.ar      12 UNK        -0.0782 
     15 C15        27.7089   23.3557    5.3265 C.3       12 UNK         0.0230 
     16 S16        26.6349   23.9655    3.9868 S.3       12 UNK        -0.2608 
     17 C17        27.2331   25.6735    3.7504 C.3       12 UNK        -0.0989 
     18 CA         27.3265   26.0275    2.2408 C.3       5 UNK         0.0716 
     19 N          26.0338   26.0480    1.5407 N.am      5 UNK        -0.4135 
     20 C          24.9203   26.7258    1.8655 C.2       4 UNK         0.5031 
     21 O          24.8084   27.4447    2.8608 O.2       4 UNK        -0.5229 
     22 CA         23.7019   26.5354    0.9336 C.3       4 UNK         0.0329 
     23 CB         22.6367   27.6432    1.0905 C.3       4 UNK        -0.2001 
     24 N          24.0676   26.3451   -0.4760 N.am      4 UNK        -0.4303 
     25 C          24.6837   27.2246   -1.2789 C.2       3 UNK         0.5044 
     26 O          24.9628   28.3843   -0.9700 O.2       3 UNK        -0.5152 
     27 CA         25.1026   26.6909   -2.6607 C.3       3 UNK         0.0319 
     28 CB         24.5756   27.5903   -3.7919 C.3       3 UNK        -0.2001 
     29 N          26.5601   26.5801   -2.7650 N.am      3 UNK        -0.4354 
     30 C          27.3275   25.8134   -1.9785 C.2       2 UNK         0.4964 
     31 O          26.8800   25.0638   -1.1057 O.2       2 UNK        -0.5047 
     32 CA         28.8424   25.9174   -2.1926 C.3       2 UNK         0.0288 
     33 CB         29.3753   27.2995   -1.7661 C.3       2 UNK        -0.2113 
     34 N          29.5011   24.8603   -1.4290 N.am      2 UNK        -0.4145 
     35 C          30.7300   24.3829   -1.6472 C.2       1 UNK         0.5006 
     36 O          31.4874   24.8335   -2.5088 O.2       1 UNK        -0.5103 
     37 C          28.1426   27.3117    1.9988 C.2       5 UNK         0.5055 
     38 O          27.5927   28.3731    1.7002 O.2       5 UNK        -0.5220 
     39 N          29.4705   27.1968    2.1395 N.am      6 UNK        -0.4450 
     40 CA         30.4493   28.2591    1.8766 C.3       6 UNK         0.0367 
     41 CB         31.7948   27.6121    1.5053 C.3       6 UNK        -0.1929 
     42 C          30.5776   29.2852    3.0225 C.2       6 UNK         0.5070 
     43 O          31.6831   29.7613    3.3029 O.2       6 UNK        -0.5237 
     44 N          29.4451   29.6283    3.6486 N.am      7 UNK        -0.4739 
     45 CA         29.3149   30.6116    4.7223 C.3       7 UNK         0.0276 
     46 CB         27.8674   30.6057    5.2400 C.3       7 UNK        -0.1927 
     47 C          29.7287   32.0105    4.2387 C.2       7 UNK         0.5013 
     48 O          29.0964   32.5472    3.3275 O.2       7 UNK        -0.5193 
     49 N          30.8168   32.5318    4.8192 N.am      8 UNK        -0.4253 
     50 CA         31.5340   33.7700    4.4857 C.3       8 UNK         0.0242 
     51 CB         30.6121   35.0049    4.5650 C.3       8 UNK        -0.2000 
     52 C          32.3166   33.7200    3.1570 C.2       8 UNK         0.4948 
     53 O          33.0501   34.6673    2.8700 O.2       8 UNK        -0.5275 
     54 N          32.1854   32.6325    2.3852 N.am      9 UNK        -0.4246 
     55 CA         32.9370   32.3872    1.1543 C.3       9 UNK         0.0261 
     56 CB         32.0693   31.5965    0.1616 C.3       9 UNK        -0.1959 
     57 C          34.2502   31.6475    1.4470 C.2       9 UNK         0.5033 
     58 O          35.2781   32.0029    0.8681 O.2       9 UNK        -0.5390 
     59 N          34.1997   30.6501    2.3411 N.am      10 UNK        -0.4215 
     60 CA         35.3600   29.8664    2.7743 C.3       10 UNK         0.0240 
     61 CB         35.5112   28.6152    1.8903 C.3       10 UNK        -0.1982 
     62 C          35.3085   29.4753    4.2595 C.2       10 UNK         0.4970 
     63 O          36.3666   29.1879    4.8216 O.2       10 UNK        -0.4916 
     64 N          34.1203   29.4585    4.8754 N.am      11 UNK        -0.4279 
     65 CA         33.9129   29.0463    6.2700 C.3       11 UNK         0.1003 
     66 C          32.7852   29.8620    6.9593 C.2       11 UNK         0.5709 
     67 N          32.3338   29.4576    8.1387 N.am      11 UNK        -0.7358 
     68 O          32.3369   30.8899    6.4566 O.2       11 UNK        -0.4999 
     69 C69        33.7831   27.5022    6.4018 C.3       12 UNK        -0.0954 
     70 S70        32.4111   26.7897    5.4341 S.3       12 UNK        -0.2268 
     71 C71        32.3796   25.1175    6.1390 C.3       12 UNK         0.0203 
     72 H72        27.2627   20.9911   -0.6434 H         1 UNK         0.0888 
     73 H73        28.7296   20.0169   -0.7748 H         1 UNK         0.0888 
     74 H74        28.0507   20.3803    0.8137 H         1 UNK         0.0888 
     75 H75        30.4975   21.2686   -1.2579 H         1 UNK         0.3017 
     76 H76        32.0539   22.7730   -1.3305 H         1 UNK         0.0873 
     77 H77        32.3717   24.5279    0.4800 H         1 UNK         0.0745 
     78 H78        30.9193   23.9674    1.2530 H         1 UNK         0.0745 
     79 H79        32.1021   20.7756    3.0741 H         1 UNK         0.0705 
     80 H80        30.7708   21.1455    2.0147 H         1 UNK         0.0705 
     81 H81        32.9773   23.3738    4.1370 H         1 UNK         0.1334 
     82 H82        29.6912   24.8562    6.4502 H         1 UNK         0.1417 
     83 H83        29.0080   21.9088    3.4109 H         1 UNK         0.1562 
     84 H84        27.5177   23.9453    6.2246 H         1 UNK         0.0748 
     85 H85        27.4193   22.3322    5.5685 H         1 UNK         0.0748 
     86 H86        28.2087   25.7777    4.2253 H         1 UNK         0.0940 
     87 H87        26.5798   26.3593    4.2901 H         1 UNK         0.0940 
     88 H88        27.8894   25.2313    1.7520 H         1 UNK         0.0703 
     89 H89        26.0379   25.5387    0.6626 H         1 UNK         0.3081 
     90 H90        23.2391   25.5988    1.2483 H         1 UNK         0.0719 
     91 H91        23.0439   28.6312    0.8738 H         1 UNK         0.0809 
     92 H92        21.7880   27.4760    0.4275 H         1 UNK         0.0809 
     93 H93        22.2492   27.6705    2.1096 H         1 UNK         0.0809 
     94 H94        23.9148   25.4127   -0.8364 H         1 UNK         0.2990 
     95 H95        24.6810   25.6931   -2.8006 H         1 UNK         0.0690 
     96 H96        24.8158   27.1782   -4.7722 H         1 UNK         0.0788 
     97 H97        24.9941   28.5963   -3.7383 H         1 UNK         0.0788 
     98 H98        23.4903   27.6863   -3.7386 H         1 UNK         0.0788 
     99 H99        27.0077   27.1876   -3.4360 H         1 UNK         0.2993 
    100 H100       29.0440   25.7585   -3.2542 H         1 UNK         0.0949 
    101 H101       29.1227   27.5188   -0.7308 H         1 UNK         0.0767 
    102 H102       30.4586   27.3651   -1.8676 H         1 UNK         0.0767 
    103 H103       28.9486   28.0947   -2.3781 H         1 UNK         0.0767 
    104 H104       28.9153   24.3956   -0.7347 H         1 UNK         0.3013 
    105 H105       29.8514   26.3109    2.4409 H         1 UNK         0.3121 
    106 H106       30.1121   28.8252    1.0062 H         1 UNK         0.0774 
    107 H107       32.5198   28.3658    1.1992 H         1 UNK         0.0815 
    108 H108       32.2238   27.0615    2.3433 H         1 UNK         0.0815 
    109 H109       31.6845   26.9232    0.6680 H         1 UNK         0.0815 
    110 H110       28.5827   29.2548    3.2682 H         1 UNK         0.2987 
    111 H111       29.9665   30.2994    5.5398 H         1 UNK         0.0949 
    112 H112       27.1563   30.8674    4.4551 H         1 UNK         0.0806 
    113 H113       27.5895   29.6264    5.6304 H         1 UNK         0.0806 
    114 H114       27.7404   31.3257    6.0495 H         1 UNK         0.0806 
    115 H115       31.2970   31.9513    5.5090 H         1 UNK         0.3010 
    116 H116       32.2894   33.8788    5.2656 H         1 UNK         0.0829 
    117 H117       30.0814   35.0447    5.5162 H         1 UNK         0.0813 
    118 H118       31.1890   35.9265    4.4782 H         1 UNK         0.0813 
    119 H119       29.8717   35.0146    3.7648 H         1 UNK         0.0813 
    120 H120       31.5838   31.8877    2.7119 H         1 UNK         0.3038 
    121 H121       33.1870   33.3421    0.6865 H         1 UNK         0.0769 
    122 H122       32.6012   31.4379   -0.7775 H         1 UNK         0.0811 
    123 H123       31.1496   32.1324   -0.0737 H         1 UNK         0.0811 
    124 H124       31.7953   30.6164    0.5478 H         1 UNK         0.0811 
    125 H125       33.2974   30.3993    2.7386 H         1 UNK         0.3204 
    126 H126       36.2592   30.4754    2.6573 H         1 UNK         0.0748 
    127 H127       36.4296   28.0787    2.1321 H         1 UNK         0.0771 
    128 H128       34.6853   27.9188    2.0330 H         1 UNK         0.0771 
    129 H129       35.5575   28.8749    0.8326 H         1 UNK         0.0771 
    130 H130       33.2650   29.6834    4.3776 H         1 UNK         0.2980 
    131 H131       34.8023   29.3399    6.8303 H         1 UNK         0.0545 
    132 H132       31.6165   29.9964    8.5971 H         1 UNK         0.3459 
    133 H133       32.6932   28.6256    8.5780 H         1 UNK         0.3459 
    134 H134       33.6783   27.2077    7.4467 H         1 UNK         0.0616 
    135 H135       34.7064   27.0318    6.0602 H         1 UNK         0.0616 
    136 H136       33.3880   24.7006    6.1271 H         1 UNK         0.0634 
    137 H137       32.0776   25.1711    7.1861 H         1 UNK         0.0634 
@<TRIPOS>BOND
     1    1    2 1    
     2    1   72 1    
     3    1   73 1    
     4    1   74 1    
     5    2    3 2    
     6    2    4 am   BACKBONE|DICT|INTERRES
     7    4    5 1    
     8    4   75 1    
     9    5    6 1    
    10    5   35 1    
    11    5   76 1    
    12    6    7 1    
    13    6   77 1    
    14    6   78 1    
    15    7    8 1    
    16    8    9 1    
    17    8   79 1    
    18    8   80 1    
    19    9   10 ar   
    20    9   14 ar   
    21   10   11 ar   
    22   10   81 1    
    23   11   12 ar   
    24   11   71 1    
    25   12   13 ar   
    26   12   82 1    
    27   13   14 ar   
    28   13   15 1    
    29   14   83 1    
    30   15   16 1    
    31   15   84 1    
    32   15   85 1    
    33   16   17 1    
    34   17   18 1    
    35   17   86 1    
    36   17   87 1    
    37   18   19 1    
    38   18   37 1    
    39   18   88 1    
    40   19   20 am   BACKBONE|DICT|INTERRES
    41   19   89 1    
    42   20   21 2    
    43   20   22 1    
    44   22   23 1    
    45   22   24 1    
    46   22   90 1    
    47   23   91 1    
    48   23   92 1    
    49   23   93 1    
    50   24   25 am   BACKBONE|DICT|INTERRES
    51   24   94 1    
    52   25   26 2    
    53   25   27 1    
    54   27   28 1    
    55   27   29 1    
    56   27   95 1    
    57   28   96 1    
    58   28   97 1    
    59   28   98 1    
    60   29   30 am   BACKBONE|DICT|INTERRES
    61   29   99 1    
    62   30   31 2    
    63   30   32 1    
    64   32   33 1    
    65   32   34 1    
    66   32  100 1    
    67   33  101 1    
    68   33  102 1    
    69   33  103 1    
    70   34   35 am   BACKBONE|DICT|INTERRES
    71   34  104 1    
    72   35   36 2    
    73   37   38 2    
    74   37   39 am   BACKBONE|DICT|INTERRES
    75   39   40 1    
    76   39  105 1    
    77   40   41 1    
    78   40   42 1    
    79   40  106 1    
    80   41  107 1    
    81   41  108 1    
    82   41  109 1    
    83   42   43 2    
    84   42   44 am   BACKBONE|DICT|INTERRES
    85   44   45 1    
    86   44  110 1    
    87   45   46 1    
    88   45   47 1    
    89   45  111 1    
    90   46  112 1    
    91   46  113 1    
    92   46  114 1    
    93   47   48 2    
    94   47   49 am   BACKBONE|DICT|INTERRES
    95   49   50 1    
    96   49  115 1    
    97   50   51 1    
    98   50   52 1    
    99   50  116 1    
   100   51  117 1    
   101   51  118 1    
   102   51  119 1    
   103   52   53 2    
   104   52   54 am   BACKBONE|DICT|INTERRES
   105   54   55 1    
   106   54  120 1    
   107   55   56 1    
   108   55   57 1    
   109   55  121 1    
   110   56  122 1    
   111   56  123 1    
   112   56  124 1    
   113   57   58 2    
   114   57   59 am   BACKBONE|DICT|INTERRES
   115   59   60 1    
   116   59  125 1    
   117   60   61 1    
   118   60   62 1    
   119   60  126 1    
   120   61  127 1    
   121   61  128 1    
   122   61  129 1    
   123   62   63 2    
   124   62   64 am   BACKBONE|DICT|INTERRES
   125   64   65 1    
   126   64  130 1    
   127   65   66 1    
   128   65   69 1    
   129   65  131 1    
   130   66   67 am   BACKBONE|DICT|INTERRES
   131   66   68 2    
   132   67  132 1    
   133   67  133 1    
   134   69   70 1    
   135   69  134 1    
   136   69  135 1    
   137   70   71 1    
   138   71  136 1    
   139   71  137 1    
@<TRIPOS>SUBSTRUCTURE
     1 UNK         1 GROUP             0       ****    0 ROOT    
