@<TRIPOS>MOLECULE
3R136
137   139    1
SMALL
USER_CHARGES


@<TRIPOS>ATOM
      1 CA         28.6305   21.6149   -3.3447 C.3       0 UNK        -0.1979 
      2 C          29.1424   21.7059   -1.9147 C.2       0 UNK         0.4864 
      3 O          30.3372   21.5235   -1.6798 O.2       0 UNK        -0.5359 
      4 N          28.2464   21.9835   -0.9626 N.am      1 UNK        -0.4318 
      5 CA         28.5370   22.1905    0.4523 C.3       1 UNK         0.0824 
      6 C6         28.7784   20.8443    1.1915 C.3       12 UNK        -0.0944 
      7 S7         29.3793   20.9823    2.9126 S.3       12 UNK        -0.2672 
      8 C8         31.1855   21.1071    2.7069 C.3       12 UNK         0.0333 
      9 C9         31.6162   22.5514    2.5020 C.ar      12 UNK        -0.0807 
     10 C10        31.7303   23.4112    3.5987 C.ar      12 UNK        -0.0894 
     11 C11        32.0974   24.7484    3.4183 C.ar      12 UNK        -0.0804 
     12 C12        32.3305   25.2300    2.1266 C.ar      12 UNK        -0.0824 
     13 C13        32.2153   24.3791    1.0231 C.ar      12 UNK        -0.0762 
     14 C14        31.8880   23.0350    1.2199 C.ar      12 UNK        -0.0782 
     15 C15        32.4186   24.9084   -0.3876 C.3       12 UNK         0.0230 
     16 S16        30.8235   25.2751   -1.1871 S.3       12 UNK        -0.2608 
     17 C17        30.2997   26.7706   -0.2849 C.3       12 UNK        -0.0989 
     18 CA         29.2847   27.6051   -1.1072 C.3       5 UNK         0.0716 
     19 N          28.0081   26.9039   -1.2335 N.am      5 UNK        -0.4135 
     20 C          27.3230   26.7237   -2.3691 C.2       4 UNK         0.5031 
     21 O          27.7264   27.0799   -3.4775 O.2       4 UNK        -0.5229 
     22 CA         25.9533   26.0219   -2.2689 C.3       4 UNK         0.0329 
     23 CB         26.0661   24.5632   -2.7364 C.3       4 UNK        -0.2001 
     24 N          25.3857   26.0562   -0.9174 N.am      4 UNK        -0.4303 
     25 C          24.8555   27.1538   -0.3562 C.2       3 UNK         0.5044 
     26 O          24.6735   28.2061   -0.9698 O.2       3 UNK        -0.5152 
     27 CA         24.4636   27.0888    1.1344 C.3       3 UNK         0.0319 
     28 CB         22.9342   27.0350    1.2855 C.3       3 UNK        -0.2001 
     29 N          25.0530   25.9809    1.8952 N.am      3 UNK        -0.4354 
     30 C          26.3616   25.7630    2.0859 C.2       2 UNK         0.4964 
     31 O          27.2492   26.4544    1.5871 O.2       2 UNK        -0.5047 
     32 CA         26.7640   24.5506    2.9459 C.3       2 UNK         0.0288 
     33 CB         25.5749   23.7633    3.5447 C.3       2 UNK        -0.2113 
     34 N          27.6540   23.6513    2.2058 N.am      2 UNK        -0.4145 
     35 C          27.3978   23.0420    1.0392 C.2       1 UNK         0.5006 
     36 O          26.3315   23.1477    0.4217 O.2       1 UNK        -0.5103 
     37 C          29.0325   28.9705   -0.4420 C.2       5 UNK         0.5055 
     38 O          27.9643   29.2048    0.1310 O.2       5 UNK        -0.5220 
     39 N          30.0407   29.8514   -0.4907 N.am      6 UNK        -0.4450 
     40 CA         30.0468   31.1628    0.1660 C.3       6 UNK         0.0367 
     41 CB         31.0990   32.0586   -0.5146 C.3       6 UNK        -0.1929 
     42 C          30.2809   31.0378    1.6849 C.2       6 UNK         0.5070 
     43 O          31.2475   31.5931    2.2082 O.2       6 UNK        -0.5237 
     44 N          29.3969   30.3029    2.3721 N.am      7 UNK        -0.4739 
     45 CA         29.4713   29.9263    3.7918 C.3       7 UNK         0.0276 
     46 CB         28.3357   28.9358    4.0976 C.3       7 UNK        -0.1927 
     47 C          29.4708   31.0945    4.7995 C.2       7 UNK         0.5013 
     48 O          29.7325   30.8702    5.9813 O.2       7 UNK        -0.5193 
     49 N          29.1972   32.3181    4.3282 N.am      8 UNK        -0.4253 
     50 CA         29.3998   33.5607    5.0753 C.3       8 UNK         0.0242 
     51 CB         28.6697   34.7057    4.3544 C.3       8 UNK        -0.2000 
     52 C          30.8904   33.9094    5.2665 C.2       8 UNK         0.4948 
     53 O          31.2154   34.6173    6.2207 O.2       8 UNK        -0.5275 
     54 N          31.7574   33.4235    4.3660 N.am      9 UNK        -0.4246 
     55 CA         33.2070   33.6247    4.3910 C.3       9 UNK         0.0261 
     56 CB         33.6358   34.3891    3.1270 C.3       9 UNK        -0.1959 
     57 C          33.9565   32.2880    4.4927 C.2       9 UNK         0.5033 
     58 O          34.9054   32.1889    5.2734 O.2       9 UNK        -0.5390 
     59 N          33.5328   31.2844    3.7109 N.am      10 UNK        -0.4215 
     60 CA         34.0991   29.9355    3.7059 C.3       10 UNK         0.0240 
     61 CB         33.5442   29.1481    2.5068 C.3       10 UNK        -0.1982 
     62 C          33.7957   29.2026    5.0205 C.2       10 UNK         0.4970 
     63 O          32.6796   29.3090    5.5307 O.2       10 UNK        -0.4916 
     64 N          34.7930   28.4677    5.5248 N.am      11 UNK        -0.4279 
     65 CA         34.7643   27.7260    6.7990 C.3       11 UNK         0.1003 
     66 C          34.7302   28.6246    8.0749 C.2       11 UNK         0.5709 
     67 N          34.9427   29.9326    7.9786 N.am      11 UNK        -0.7358 
     68 O          34.5469   28.1238    9.1822 O.2       11 UNK        -0.4999 
     69 C69        33.6925   26.5958    6.8398 C.3       12 UNK        -0.0954 
     70 S70        33.8330   25.4235    5.4485 S.3       12 UNK        -0.2268 
     71 C71        32.2324   25.6693    4.6204 C.3       12 UNK         0.0203 
     72 H72        29.0709   22.4072   -3.9496 H         1 UNK         0.0888 
     73 H73        28.9074   20.6563   -3.7826 H         1 UNK         0.0888 
     74 H74        27.5461   21.7100   -3.3971 H         1 UNK         0.0888 
     75 H75        27.2735   22.1483   -1.1925 H         1 UNK         0.3017 
     76 H76        29.4302   22.8081    0.5050 H         1 UNK         0.0873 
     77 H77        29.4967   20.2382    0.6379 H         1 UNK         0.0745 
     78 H78        27.8571   20.2591    1.2045 H         1 UNK         0.0745 
     79 H79        31.5178   20.4766    1.8807 H         1 UNK         0.0705 
     80 H80        31.6675   20.7115    3.6022 H         1 UNK         0.0705 
     81 H81        31.5324   23.0394    4.5951 H         1 UNK         0.1334 
     82 H82        32.5936   26.2676    1.9791 H         1 UNK         0.1417 
     83 H83        31.8000   22.3765    0.3657 H         1 UNK         0.1562 
     84 H84        32.9470   24.1633   -0.9845 H         1 UNK         0.0748 
     85 H85        33.0491   25.7989   -0.3849 H         1 UNK         0.0748 
     86 H86        31.1918   27.3566   -0.0572 H         1 UNK         0.0940 
     87 H87        29.8755   26.4734    0.6767 H         1 UNK         0.0940 
     88 H88        29.7087   27.8000   -2.0946 H         1 UNK         0.0703 
     89 H89        27.5701   26.6693   -0.3475 H         1 UNK         0.3081 
     90 H90        25.2679   26.5404   -2.9429 H         1 UNK         0.0719 
     91 H91        26.4003   24.5111   -3.7736 H         1 UNK         0.0809 
     92 H92        26.7870   24.0117   -2.1361 H         1 UNK         0.0809 
     93 H93        25.1077   24.0471   -2.6767 H         1 UNK         0.0809 
     94 H94        25.4956   25.2238   -0.3512 H         1 UNK         0.2990 
     95 H95        24.8191   28.0152    1.5905 H         1 UNK         0.0690 
     96 H96        22.6348   27.1004    2.3317 H         1 UNK         0.0788 
     97 H97        22.5211   26.1137    0.8728 H         1 UNK         0.0788 
     98 H98        22.4592   27.8672    0.7637 H         1 UNK         0.0788 
     99 H99        24.4037   25.3339    2.3190 H         1 UNK         0.2993 
    100 H100       27.3481   24.9525    3.7753 H         1 UNK         0.0949 
    101 H101       24.9350   23.3284    2.7758 H         1 UNK         0.0767 
    102 H102       25.9299   22.9455    4.1722 H         1 UNK         0.0767 
    103 H103       24.9554   24.4000    4.1779 H         1 UNK         0.0767 
    104 H104       28.5637   23.5014    2.6213 H         1 UNK         0.3013 
    105 H105       30.8936   29.5879   -0.9635 H         1 UNK         0.3121 
    106 H106       29.0704   31.6319    0.0265 H         1 UNK         0.0774 
    107 H107       31.1052   33.0569   -0.0747 H         1 UNK         0.0815 
    108 H108       32.1058   31.6518   -0.4105 H         1 UNK         0.0815 
    109 H109       30.8920   32.1776   -1.5782 H         1 UNK         0.0815 
    110 H110       28.6451   29.8810    1.8322 H         1 UNK         0.2987 
    111 H111       30.4195   29.4048    3.9364 H         1 UNK         0.0949 
    112 H112       28.4143   28.0433    3.4768 H         1 UNK         0.0806 
    113 H113       28.3682   28.6068    5.1372 H         1 UNK         0.0806 
    114 H114       27.3553   29.3806    3.9242 H         1 UNK         0.0806 
    115 H115       28.9706   32.4023    3.3482 H         1 UNK         0.3010 
    116 H116       28.9583   33.4415    6.0672 H         1 UNK         0.0829 
    117 H117       29.0642   34.8690    3.3506 H         1 UNK         0.0813 
    118 H118       28.7776   35.6425    4.9029 H         1 UNK         0.0813 
    119 H119       27.6017   34.5042    4.2683 H         1 UNK         0.0813 
    120 H120       31.4021   32.8284    3.6225 H         1 UNK         0.3038 
    121 H121       33.4934   34.2213    5.2597 H         1 UNK         0.0769 
    122 H122       33.1698   35.3737    3.0855 H         1 UNK         0.0811 
    123 H123       33.3640   33.8527    2.2167 H         1 UNK         0.0811 
    124 H124       34.7159   34.5405    3.1089 H         1 UNK         0.0811 
    125 H125       32.7212   31.4307    3.1115 H         1 UNK         0.3204 
    126 H126       35.1807   30.0295    3.5872 H         1 UNK         0.0748 
    127 H127       32.4704   28.9797    2.5942 H         1 UNK         0.0771 
    128 H128       33.7253   29.6719    1.5680 H         1 UNK         0.0771 
    129 H129       34.0238   28.1716    2.4314 H         1 UNK         0.0771 
    130 H130       35.6748   28.4421    5.0339 H         1 UNK         0.2980 
    131 H131       35.7363   27.2346    6.8518 H         1 UNK         0.0545 
    132 H132       34.9311   30.4943    8.8150 H         1 UNK         0.3459 
    133 H133       35.0857   30.3698    7.0803 H         1 UNK         0.3459 
    134 H134       32.6873   27.0188    6.8705 H         1 UNK         0.0616 
    135 H135       33.7954   26.0108    7.7552 H         1 UNK         0.0616 
    136 H136       32.1353   26.7127    4.3169 H         1 UNK         0.0634 
    137 H137       31.4239   25.4742    5.3266 H         1 UNK         0.0634 
@<TRIPOS>BOND
     1    1    2 1    
     2    1   72 1    
     3    1   73 1    
     4    1   74 1    
     5    2    3 2    
     6    2    4 am   BACKBONE|DICT|INTERRES
     7    4    5 1    
     8    4   75 1    
     9    5    6 1    
    10    5   35 1    
    11    5   76 1    
    12    6    7 1    
    13    6   77 1    
    14    6   78 1    
    15    7    8 1    
    16    8    9 1    
    17    8   79 1    
    18    8   80 1    
    19    9   10 ar   
    20    9   14 ar   
    21   10   11 ar   
    22   10   81 1    
    23   11   12 ar   
    24   11   71 1    
    25   12   13 ar   
    26   12   82 1    
    27   13   14 ar   
    28   13   15 1    
    29   14   83 1    
    30   15   16 1    
    31   15   84 1    
    32   15   85 1    
    33   16   17 1    
    34   17   18 1    
    35   17   86 1    
    36   17   87 1    
    37   18   19 1    
    38   18   37 1    
    39   18   88 1    
    40   19   20 am   BACKBONE|DICT|INTERRES
    41   19   89 1    
    42   20   21 2    
    43   20   22 1    
    44   22   23 1    
    45   22   24 1    
    46   22   90 1    
    47   23   91 1    
    48   23   92 1    
    49   23   93 1    
    50   24   25 am   BACKBONE|DICT|INTERRES
    51   24   94 1    
    52   25   26 2    
    53   25   27 1    
    54   27   28 1    
    55   27   29 1    
    56   27   95 1    
    57   28   96 1    
    58   28   97 1    
    59   28   98 1    
    60   29   30 am   BACKBONE|DICT|INTERRES
    61   29   99 1    
    62   30   31 2    
    63   30   32 1    
    64   32   33 1    
    65   32   34 1    
    66   32  100 1    
    67   33  101 1    
    68   33  102 1    
    69   33  103 1    
    70   34   35 am   BACKBONE|DICT|INTERRES
    71   34  104 1    
    72   35   36 2    
    73   37   38 2    
    74   37   39 am   BACKBONE|DICT|INTERRES
    75   39   40 1    
    76   39  105 1    
    77   40   41 1    
    78   40   42 1    
    79   40  106 1    
    80   41  107 1    
    81   41  108 1    
    82   41  109 1    
    83   42   43 2    
    84   42   44 am   BACKBONE|DICT|INTERRES
    85   44   45 1    
    86   44  110 1    
    87   45   46 1    
    88   45   47 1    
    89   45  111 1    
    90   46  112 1    
    91   46  113 1    
    92   46  114 1    
    93   47   48 2    
    94   47   49 am   BACKBONE|DICT|INTERRES
    95   49   50 1    
    96   49  115 1    
    97   50   51 1    
    98   50   52 1    
    99   50  116 1    
   100   51  117 1    
   101   51  118 1    
   102   51  119 1    
   103   52   53 2    
   104   52   54 am   BACKBONE|DICT|INTERRES
   105   54   55 1    
   106   54  120 1    
   107   55   56 1    
   108   55   57 1    
   109   55  121 1    
   110   56  122 1    
   111   56  123 1    
   112   56  124 1    
   113   57   58 2    
   114   57   59 am   BACKBONE|DICT|INTERRES
   115   59   60 1    
   116   59  125 1    
   117   60   61 1    
   118   60   62 1    
   119   60  126 1    
   120   61  127 1    
   121   61  128 1    
   122   61  129 1    
   123   62   63 2    
   124   62   64 am   BACKBONE|DICT|INTERRES
   125   64   65 1    
   126   64  130 1    
   127   65   66 1    
   128   65   69 1    
   129   65  131 1    
   130   66   67 am   BACKBONE|DICT|INTERRES
   131   66   68 2    
   132   67  132 1    
   133   67  133 1    
   134   69   70 1    
   135   69  134 1    
   136   69  135 1    
   137   70   71 1    
   138   71  136 1    
   139   71  137 1    
@<TRIPOS>SUBSTRUCTURE
     1 UNK         1 GROUP             0       ****    0 ROOT    
