@<TRIPOS>MOLECULE
3R136
137   139    1
SMALL
USER_CHARGES


@<TRIPOS>ATOM
      1 CA         24.5515   23.9184    4.8387 C.3       0 UNK        -0.1979 
      2 C          25.6620   23.7573    3.8108 C.2       0 UNK         0.4864 
      3 O          25.7563   24.5687    2.8910 O.2       0 UNK        -0.5359 
      4 N          26.4948   22.7188    3.9693 N.am      1 UNK        -0.4318 
      5 CA         27.6406   22.3696    3.1160 C.3       1 UNK         0.0824 
      6 C6         28.8133   23.3887    3.2047 C.3       12 UNK        -0.0944 
      7 S7         29.4474   23.5831    4.9046 S.3       12 UNK        -0.2672 
      8 C8         30.5049   25.0593    4.7511 C.3       12 UNK         0.0333 
      9 C9         31.5332   24.9219    3.6373 C.ar      12 UNK        -0.0807 
     10 C10        32.6791   24.1482    3.8337 C.ar      12 UNK        -0.0894 
     11 C11        33.6116   23.9879    2.8055 C.ar      12 UNK        -0.0804 
     12 C12        33.3879   24.6133    1.5748 C.ar      12 UNK        -0.0824 
     13 C13        32.2531   25.4047    1.3629 C.ar      12 UNK        -0.0762 
     14 C14        31.3302   25.5562    2.4074 C.ar      12 UNK        -0.0782 
     15 C15        32.0833   26.0672   -0.0070 C.3       12 UNK         0.0230 
     16 S16        30.4359   26.7819   -0.3505 S.3       12 UNK        -0.2608 
     17 C17        30.7583   28.5835   -0.2843 C.3       12 UNK        -0.0989 
     18 CA         29.5651   29.4254    0.2432 C.3       5 UNK         0.0716 
     19 N          28.2975   29.0593   -0.4015 N.am      5 UNK        -0.4135 
     20 C          27.0885   29.5824   -0.1497 C.2       4 UNK         0.5031 
     21 O          26.9111   30.5471    0.5943 O.2       4 UNK        -0.5229 
     22 CA         25.8576   28.8996   -0.7814 C.3       4 UNK         0.0329 
     23 CB         25.1671   29.8518   -1.7722 C.3       4 UNK        -0.2001 
     24 N          26.1075   27.6161   -1.4521 N.am      4 UNK        -0.4303 
     25 C          26.5996   26.4998   -0.8949 C.2       3 UNK         0.5044 
     26 O          26.9613   26.4181    0.2817 O.2       3 UNK        -0.5152 
     27 CA         26.7536   25.2990   -1.8383 C.3       3 UNK         0.0319 
     28 CB         27.6917   25.6281   -3.0218 C.3       3 UNK        -0.2001 
     29 N          27.2717   24.1479   -1.1017 N.am      3 UNK        -0.4354 
     30 C          27.2197   22.8787   -1.5257 C.2       2 UNK         0.4964 
     31 O          26.6459   22.5298   -2.5586 O.2       2 UNK        -0.5047 
     32 CA         27.9539   21.8117   -0.6965 C.3       2 UNK         0.0288 
     33 CB         29.3312   21.5193   -1.3165 C.3       2 UNK        -0.2113 
     34 N          28.1414   22.1768    0.7081 N.am      2 UNK        -0.4145 
     35 C          27.2138   22.0320    1.6646 C.2       1 UNK         0.5006 
     36 O          26.0828   21.5892    1.4429 O.2       1 UNK        -0.5103 
     37 C          29.5009   29.4064    1.7849 C.2       5 UNK         0.5055 
     38 O          30.1646   30.2290    2.4172 O.2       5 UNK        -0.5220 
     39 N          28.6658   28.5257    2.3587 N.am      6 UNK        -0.4450 
     40 CA         28.3667   28.4417    3.7919 C.3       6 UNK         0.0367 
     41 CB         27.3893   27.2808    4.0278 C.3       6 UNK        -0.1929 
     42 C          27.7902   29.7313    4.4069 C.2       6 UNK         0.5070 
     43 O          27.9819   29.9580    5.6012 O.2       6 UNK        -0.5237 
     44 N          27.1063   30.5536    3.5980 N.am      7 UNK        -0.4739 
     45 CA         26.5774   31.8588    4.0057 C.3       7 UNK         0.0276 
     46 CB         25.3360   32.1810    3.1563 C.3       7 UNK        -0.1927 
     47 C          27.6212   32.9871    3.8933 C.2       7 UNK         0.5013 
     48 O          27.3395   34.1032    4.3330 O.2       7 UNK        -0.5193 
     49 N          28.7848   32.6931    3.2998 N.am      8 UNK        -0.4253 
     50 CA         29.9013   33.6093    3.0992 C.3       8 UNK         0.0242 
     51 CB         30.1821   33.7212    1.5850 C.3       8 UNK        -0.2000 
     52 C          31.0958   33.1159    3.9340 C.2       8 UNK         0.4948 
     53 O          30.9601   32.9639    5.1491 O.2       8 UNK        -0.5275 
     54 N          32.2460   32.8905    3.2863 N.am      9 UNK        -0.4246 
     55 CA         33.5098   32.4995    3.9168 C.3       9 UNK         0.0261 
     56 CB         34.6651   32.9054    2.9846 C.3       9 UNK        -0.1959 
     57 C          33.6146   31.0051    4.2783 C.2       9 UNK         0.5033 
     58 O          34.6204   30.6191    4.8796 O.2       9 UNK        -0.5390 
     59 N          32.6262   30.1829    3.8899 N.am      10 UNK        -0.4215 
     60 CA         32.6159   28.7205    4.0043 C.3       10 UNK         0.0240 
     61 CB         32.4904   28.2819    5.4820 C.3       10 UNK        -0.1982 
     62 C          33.8084   28.1149    3.2422 C.2       10 UNK         0.4970 
     63 O          33.9690   28.4167    2.0578 O.2       10 UNK        -0.4916 
     64 N          34.6242   27.3047    3.9248 N.am      11 UNK        -0.4279 
     65 CA         35.8651   26.7321    3.3869 C.3       11 UNK         0.1003 
     66 C          37.0729   27.7175    3.3667 C.2       11 UNK         0.5709 
     67 N          36.9529   28.9453    3.8615 N.am      11 UNK        -0.7358 
     68 O          38.1449   27.3636    2.8814 O.2       11 UNK        -0.4999 
     69 C69        36.2039   25.3743    4.0739 C.3       12 UNK        -0.0954 
     70 S70        36.4124   24.0359    2.8522 S.3       12 UNK        -0.2268 
     71 C71        34.8454   23.1179    3.0224 C.3       12 UNK         0.0203 
     72 H72        23.5788   23.8661    4.3505 H         1 UNK         0.0888 
     73 H73        24.5889   23.1451    5.6058 H         1 UNK         0.0888 
     74 H74        24.6353   24.8875    5.3300 H         1 UNK         0.0888 
     75 H75        26.3343   22.0835    4.7378 H         1 UNK         0.3017 
     76 H76        28.0128   21.4241    3.5138 H         1 UNK         0.0873 
     77 H77        28.5127   24.3590    2.8088 H         1 UNK         0.0745 
     78 H78        29.6639   23.0586    2.6069 H         1 UNK         0.0745 
     79 H79        31.0143   25.2201    5.7021 H         1 UNK         0.0705 
     80 H80        29.8809   25.9365    4.5918 H         1 UNK         0.0705 
     81 H81        32.8334   23.6574    4.7850 H         1 UNK         0.1334 
     82 H82        34.1095   24.4866    0.7791 H         1 UNK         0.1417 
     83 H83        30.4429   26.1569    2.2717 H         1 UNK         0.1562 
     84 H84        32.2748   25.3192   -0.7778 H         1 UNK         0.0748 
     85 H85        32.8546   26.8286   -0.1294 H         1 UNK         0.0748 
     86 H86        31.6576   28.7817    0.3039 H         1 UNK         0.0940 
     87 H87        31.0018   28.9049   -1.2981 H         1 UNK         0.0940 
     88 H88        29.7527   30.4652   -0.0319 H         1 UNK         0.0703 
     89 H89        28.3402   28.2454   -0.9967 H         1 UNK         0.3081 
     90 H90        25.1633   28.7014    0.0376 H         1 UNK         0.0719 
     91 H91        25.8028   30.0698   -2.6313 H         1 UNK         0.0809 
     92 H92        24.2316   29.4320   -2.1423 H         1 UNK         0.0809 
     93 H93        24.9239   30.8039   -1.2978 H         1 UNK         0.0809 
     94 H94        25.8549   27.5803   -2.4294 H         1 UNK         0.2990 
     95 H95        25.7597   25.0542   -2.2187 H         1 UNK         0.0690 
     96 H96        28.6966   25.8772   -2.6797 H         1 UNK         0.0788 
     97 H97        27.3266   26.4717   -3.6080 H         1 UNK         0.0788 
     98 H98        27.7782   24.7871   -3.7096 H         1 UNK         0.0788 
     99 H99        27.6872   24.3742   -0.2066 H         1 UNK         0.2993 
    100 H100       27.3593   20.8963   -0.7455 H         1 UNK         0.0949 
    101 H101       29.9790   22.3970   -1.2949 H         1 UNK         0.0767 
    102 H102       29.8405   20.7115   -0.7905 H         1 UNK         0.0767 
    103 H103       29.2332   21.2128   -2.3590 H         1 UNK         0.0767 
    104 H104       29.0517   22.5313    0.9623 H         1 UNK         0.3013 
    105 H105       28.1560   27.8928    1.7531 H         1 UNK         0.3121 
    106 H106       29.3029   28.2269    4.3097 H         1 UNK         0.0774 
    107 H107       27.2088   27.1280    5.0927 H         1 UNK         0.0815 
    108 H108       26.4233   27.4640    3.5549 H         1 UNK         0.0815 
    109 H109       27.7734   26.3453    3.6277 H         1 UNK         0.0815 
    110 H110       27.0151   30.3229    2.6130 H         1 UNK         0.2987 
    111 H111       26.2663   31.8094    5.0516 H         1 UNK         0.0949 
    112 H112       25.5878   32.3048    2.1026 H         1 UNK         0.0806 
    113 H113       24.5857   31.3939    3.2328 H         1 UNK         0.0806 
    114 H114       24.8666   33.1082    3.4878 H         1 UNK         0.0806 
    115 H115       28.9612   31.7305    3.0325 H         1 UNK         0.3010 
    116 H116       29.6524   34.6053    3.4708 H         1 UNK         0.0829 
    117 H117       30.9828   34.4327    1.3785 H         1 UNK         0.0813 
    118 H118       30.4565   32.7616    1.1448 H         1 UNK         0.0813 
    119 H119       29.2998   34.0800    1.0543 H         1 UNK         0.0813 
    120 H120       32.2634   33.0220    2.2852 H         1 UNK         0.3038 
    121 H121       33.6166   33.0583    4.8491 H         1 UNK         0.0769 
    122 H122       35.6324   32.6871    3.4398 H         1 UNK         0.0811 
    123 H123       34.6472   33.9740    2.7696 H         1 UNK         0.0811 
    124 H124       34.6251   32.3688    2.0358 H         1 UNK         0.0811 
    125 H125       31.8417   30.5697    3.3725 H         1 UNK         0.3204 
    126 H126       31.7264   28.3668    3.4844 H         1 UNK         0.0748 
    127 H127       32.4186   27.1982    5.5704 H         1 UNK         0.0771 
    128 H128       33.3367   28.6089    6.0869 H         1 UNK         0.0771 
    129 H129       31.5881   28.6969    5.9319 H         1 UNK         0.0771 
    130 H130       34.4400   27.1387    4.9021 H         1 UNK         0.2980 
    131 H131       35.6704   26.5363    2.3307 H         1 UNK         0.0545 
    132 H132       37.7496   29.5609    3.8334 H         1 UNK         0.3459 
    133 H133       36.0761   29.2813    4.2436 H         1 UNK         0.3459 
    134 H134       37.1162   25.4342    4.6705 H         1 UNK         0.0616 
    135 H135       35.4274   25.0792    4.7813 H         1 UNK         0.0616 
    136 H136       34.8362   22.3036    2.2969 H         1 UNK         0.0634 
    137 H137       34.8219   22.6498    4.0077 H         1 UNK         0.0634 
@<TRIPOS>BOND
     1    1    2 1    
     2    1   72 1    
     3    1   73 1    
     4    1   74 1    
     5    2    3 2    
     6    2    4 am   BACKBONE|DICT|INTERRES
     7    4    5 1    
     8    4   75 1    
     9    5    6 1    
    10    5   35 1    
    11    5   76 1    
    12    6    7 1    
    13    6   77 1    
    14    6   78 1    
    15    7    8 1    
    16    8    9 1    
    17    8   79 1    
    18    8   80 1    
    19    9   10 ar   
    20    9   14 ar   
    21   10   11 ar   
    22   10   81 1    
    23   11   12 ar   
    24   11   71 1    
    25   12   13 ar   
    26   12   82 1    
    27   13   14 ar   
    28   13   15 1    
    29   14   83 1    
    30   15   16 1    
    31   15   84 1    
    32   15   85 1    
    33   16   17 1    
    34   17   18 1    
    35   17   86 1    
    36   17   87 1    
    37   18   19 1    
    38   18   37 1    
    39   18   88 1    
    40   19   20 am   BACKBONE|DICT|INTERRES
    41   19   89 1    
    42   20   21 2    
    43   20   22 1    
    44   22   23 1    
    45   22   24 1    
    46   22   90 1    
    47   23   91 1    
    48   23   92 1    
    49   23   93 1    
    50   24   25 am   BACKBONE|DICT|INTERRES
    51   24   94 1    
    52   25   26 2    
    53   25   27 1    
    54   27   28 1    
    55   27   29 1    
    56   27   95 1    
    57   28   96 1    
    58   28   97 1    
    59   28   98 1    
    60   29   30 am   BACKBONE|DICT|INTERRES
    61   29   99 1    
    62   30   31 2    
    63   30   32 1    
    64   32   33 1    
    65   32   34 1    
    66   32  100 1    
    67   33  101 1    
    68   33  102 1    
    69   33  103 1    
    70   34   35 am   BACKBONE|DICT|INTERRES
    71   34  104 1    
    72   35   36 2    
    73   37   38 2    
    74   37   39 am   BACKBONE|DICT|INTERRES
    75   39   40 1    
    76   39  105 1    
    77   40   41 1    
    78   40   42 1    
    79   40  106 1    
    80   41  107 1    
    81   41  108 1    
    82   41  109 1    
    83   42   43 2    
    84   42   44 am   BACKBONE|DICT|INTERRES
    85   44   45 1    
    86   44  110 1    
    87   45   46 1    
    88   45   47 1    
    89   45  111 1    
    90   46  112 1    
    91   46  113 1    
    92   46  114 1    
    93   47   48 2    
    94   47   49 am   BACKBONE|DICT|INTERRES
    95   49   50 1    
    96   49  115 1    
    97   50   51 1    
    98   50   52 1    
    99   50  116 1    
   100   51  117 1    
   101   51  118 1    
   102   51  119 1    
   103   52   53 2    
   104   52   54 am   BACKBONE|DICT|INTERRES
   105   54   55 1    
   106   54  120 1    
   107   55   56 1    
   108   55   57 1    
   109   55  121 1    
   110   56  122 1    
   111   56  123 1    
   112   56  124 1    
   113   57   58 2    
   114   57   59 am   BACKBONE|DICT|INTERRES
   115   59   60 1    
   116   59  125 1    
   117   60   61 1    
   118   60   62 1    
   119   60  126 1    
   120   61  127 1    
   121   61  128 1    
   122   61  129 1    
   123   62   63 2    
   124   62   64 am   BACKBONE|DICT|INTERRES
   125   64   65 1    
   126   64  130 1    
   127   65   66 1    
   128   65   69 1    
   129   65  131 1    
   130   66   67 am   BACKBONE|DICT|INTERRES
   131   66   68 2    
   132   67  132 1    
   133   67  133 1    
   134   69   70 1    
   135   69  134 1    
   136   69  135 1    
   137   70   71 1    
   138   71  136 1    
   139   71  137 1    
@<TRIPOS>SUBSTRUCTURE
     1 UNK         1 GROUP             0       ****    0 ROOT    
