@<TRIPOS>MOLECULE
3R136
137   139    1
SMALL
USER_CHARGES


@<TRIPOS>ATOM
      1 CA         27.4687   23.4740   -2.4656 C.3       0 UNK        -0.1979 
      2 C          27.8741   23.7455   -1.0259 C.2       0 UNK         0.4864 
      3 O          27.4898   24.7779   -0.4739 O.2       0 UNK        -0.5359 
      4 N          28.6369   22.8256   -0.4179 N.am      1 UNK        -0.4318 
      5 CA         29.2389   22.9321    0.9209 C.3       1 UNK         0.0824 
      6 C6         30.0890   21.6832    1.2743 C.3       12 UNK        -0.0944 
      7 S7         31.3780   21.3050    0.0397 S.3       12 UNK        -0.2672 
      8 C8         32.8464   22.0596    0.8083 C.3       12 UNK         0.0333 
      9 C9         32.7181   23.5733    0.8697 C.ar      12 UNK        -0.0807 
     10 C10        32.4543   24.2161    2.0833 C.ar      12 UNK        -0.0894 
     11 C11        32.3000   25.6042    2.1264 C.ar      12 UNK        -0.0804 
     12 C12        32.4367   26.3489    0.9526 C.ar      12 UNK        -0.0824 
     13 C13        32.6703   25.7159   -0.2726 C.ar      12 UNK        -0.0762 
     14 C14        32.8259   24.3276   -0.3020 C.ar      12 UNK        -0.0782 
     15 C15        32.7402   26.5071   -1.5760 C.3       12 UNK         0.0230 
     16 S16        31.5079   27.8494   -1.7113 S.3       12 UNK        -0.2608 
     17 C17        29.9194   26.9865   -1.4307 C.3       12 UNK        -0.0989 
     18 CA         28.8661   27.9158   -0.7678 C.3       5 UNK         0.0716 
     19 N          27.5074   27.5634   -1.1871 N.am      5 UNK        -0.4135 
     20 C          26.5718   28.4563   -1.5369 C.2       4 UNK         0.5031 
     21 O          26.7528   29.6749   -1.5299 O.2       4 UNK        -0.5229 
     22 CA         25.1958   27.9229   -1.9790 C.3       4 UNK         0.0329 
     23 CB         25.1479   27.7920   -3.5102 C.3       4 UNK        -0.2001 
     24 N          24.7709   26.6533   -1.3802 N.am      4 UNK        -0.4303 
     25 C          24.6654   26.3965   -0.0698 C.2       3 UNK         0.5044 
     26 O          25.0509   27.1674    0.8088 O.2       3 UNK        -0.5152 
     27 CA         24.0259   25.0631    0.3415 C.3       3 UNK         0.0319 
     28 CB         23.4937   24.2082   -0.8288 C.3       3 UNK        -0.2001 
     29 N          25.0030   24.2952    1.1049 N.am      3 UNK        -0.4354 
     30 C          24.7301   23.5660    2.1952 C.2       2 UNK         0.4964 
     31 O          23.6033   23.4746    2.6853 O.2       2 UNK        -0.5047 
     32 CA         25.8952   22.7928    2.8427 C.3       2 UNK         0.0288 
     33 CB         25.4568   21.3965    3.3239 C.3       2 UNK        -0.2113 
     34 N          27.0167   22.6369    1.9143 N.am      2 UNK        -0.4145 
     35 C          28.2273   23.1913    2.0556 C.2       1 UNK         0.5006 
     36 O          28.5657   23.8739    3.0228 O.2       1 UNK        -0.5103 
     37 C          29.0040   27.9711    0.7703 C.2       5 UNK         0.5055 
     38 O          30.0185   28.4692    1.2548 O.2       5 UNK        -0.5220 
     39 N          27.9942   27.5189    1.5338 N.am      6 UNK        -0.4450 
     40 CA         28.0250   27.4635    3.0050 C.3       6 UNK         0.0367 
     41 CB         26.7559   26.7688    3.5207 C.3       6 UNK        -0.1929 
     42 C          28.1904   28.8317    3.6958 C.2       6 UNK         0.5070 
     43 O          28.6360   28.8823    4.8417 O.2       6 UNK        -0.5237 
     44 N          27.8365   29.9111    2.9870 N.am      7 UNK        -0.4739 
     45 CA         27.9713   31.3006    3.4235 C.3       7 UNK         0.0276 
     46 CB         26.9649   32.1543    2.6318 C.3       7 UNK        -0.1927 
     47 C          29.3984   31.8727    3.2880 C.2       7 UNK         0.5013 
     48 O          29.5955   33.0324    3.6561 O.2       7 UNK        -0.5193 
     49 N          30.3544   31.1002    2.7443 N.am      8 UNK        -0.4253 
     50 CA         31.7505   31.5065    2.5437 C.3       8 UNK         0.0242 
     51 CB         32.5241   30.3688    1.8568 C.3       8 UNK        -0.2000 
     52 C          32.4571   31.8986    3.8526 C.2       8 UNK         0.4948 
     53 O          32.3403   31.1832    4.8504 O.2       8 UNK        -0.5275 
     54 N          33.2256   32.9961    3.8081 N.am      9 UNK        -0.4246 
     55 CA         33.9627   33.5604    4.9470 C.3       9 UNK         0.0261 
     56 CB         34.5799   34.9067    4.5343 C.3       9 UNK        -0.1959 
     57 C          35.0423   32.6313    5.5328 C.2       9 UNK         0.5033 
     58 O          35.3757   32.7647    6.7108 O.2       9 UNK        -0.5390 
     59 N          35.5531   31.7008    4.7144 N.am      10 UNK        -0.4215 
     60 CA         36.4659   30.6344    5.1304 C.3       10 UNK         0.0240 
     61 CB         37.0823   29.9829    3.8814 C.3       10 UNK        -0.1982 
     62 C          35.7893   29.5671    6.0117 C.2       10 UNK         0.4970 
     63 O          36.4780   28.9397    6.8176 O.2       10 UNK        -0.4916 
     64 N          34.4750   29.3757    5.8413 N.am      11 UNK        -0.4279 
     65 CA         33.6557   28.4337    6.6147 C.3       11 UNK         0.1003 
     66 C          32.9409   29.1376    7.7967 C.2       11 UNK         0.5709 
     67 N          32.4216   30.3456    7.6119 N.am      11 UNK        -0.7358 
     68 O          32.8659   28.5869    8.8925 O.2       11 UNK        -0.4999 
     69 C69        32.6278   27.6982    5.7190 C.3       12 UNK        -0.0954 
     70 S70        33.4171   26.7613    4.3702 S.3       12 UNK        -0.2268 
     71 C71        31.9385   26.2993    3.4277 C.3       12 UNK         0.0203 
     72 H72        27.7085   24.3343   -3.0898 H         1 UNK         0.0888 
     73 H73        26.3967   23.2946   -2.5287 H         1 UNK         0.0888 
     74 H74        27.9839   22.6057   -2.8760 H         1 UNK         0.0888 
     75 H75        28.9187   22.0058   -0.9374 H         1 UNK         0.3017 
     76 H76        29.8942   23.8042    0.8914 H         1 UNK         0.0873 
     77 H77        30.5613   21.8020    2.2517 H         1 UNK         0.0745 
     78 H78        29.4501   20.8017    1.3588 H         1 UNK         0.0745 
     79 H79        32.9987   21.6370    1.8027 H         1 UNK         0.0705 
     80 H80        33.7287   21.7942    0.2241 H         1 UNK         0.0705 
     81 H81        32.3463   23.6374    2.9905 H         1 UNK         0.1334 
     82 H82        32.3214   27.4229    0.9877 H         1 UNK         0.1417 
     83 H83        33.0080   23.8240   -1.2420 H         1 UNK         0.1562 
     84 H84        32.6095   25.8430   -2.4319 H         1 UNK         0.0748 
     85 H85        33.7377   26.9381   -1.6688 H         1 UNK         0.0748 
     86 H86        30.0611   26.0748   -0.8477 H         1 UNK         0.0940 
     87 H87        29.5700   26.6560   -2.4102 H         1 UNK         0.0940 
     88 H88        29.0720   28.9315   -1.1123 H         1 UNK         0.0703 
     89 H89        27.2761   26.5739   -1.1510 H         1 UNK         0.3081 
     90 H90        24.4591   28.6720   -1.6814 H         1 UNK         0.0719 
     91 H91        25.8298   27.0203   -3.8700 H         1 UNK         0.0809 
     92 H92        24.1448   27.5447   -3.8582 H         1 UNK         0.0809 
     93 H93        25.4322   28.7285   -3.9927 H         1 UNK         0.0809 
     94 H94        24.4465   25.9455   -2.0225 H         1 UNK         0.2990 
     95 H95        23.1807   25.3265    0.9809 H         1 UNK         0.0690 
     96 H96        23.0049   23.3068   -0.4583 H         1 UNK         0.0788 
     97 H97        24.2902   23.8925   -1.5024 H         1 UNK         0.0788 
     98 H98        22.7493   24.7512   -1.4129 H         1 UNK         0.0788 
     99 H99        25.9637   24.3789    0.7856 H         1 UNK         0.2993 
    100 H100       26.2019   23.3704    3.7172 H         1 UNK         0.0949 
    101 H101       24.6666   21.4667    4.0726 H         1 UNK         0.0767 
    102 H102       25.0770   20.7878    2.5024 H         1 UNK         0.0767 
    103 H103       26.2864   20.8590    3.7839 H         1 UNK         0.0767 
    104 H104       26.8350   22.0991    1.0783 H         1 UNK         0.3013 
    105 H105       27.1438   27.1935    1.0876 H         1 UNK         0.3121 
    106 H106       28.8832   26.8497    3.2854 H         1 UNK         0.0774 
    107 H107       25.8630   27.3658    3.3323 H         1 UNK         0.0815 
    108 H108       26.8146   26.6004    4.5967 H         1 UNK         0.0815 
    109 H109       26.6172   25.7984    3.0487 H         1 UNK         0.0815 
    110 H110       27.4864   29.7619    2.0514 H         1 UNK         0.2987 
    111 H111       27.7079   31.3576    4.4821 H         1 UNK         0.0949 
    112 H112       27.1827   32.1466    1.5630 H         1 UNK         0.0806 
    113 H113       25.9445   31.7959    2.7698 H         1 UNK         0.0806 
    114 H114       26.9855   33.1942    2.9609 H         1 UNK         0.0806 
    115 H115       30.1134   30.1597    2.4486 H         1 UNK         0.3010 
    116 H116       31.7418   32.3707    1.8765 H         1 UNK         0.0829 
    117 H117       32.0984   30.1311    0.8816 H         1 UNK         0.0813 
    118 H118       33.5676   30.6403    1.6928 H         1 UNK         0.0813 
    119 H119       32.5134   29.4582    2.4578 H         1 UNK         0.0813 
    120 H120       33.2738   33.5168    2.9436 H         1 UNK         0.3038 
    121 H121       33.2376   33.7470    5.7422 H         1 UNK         0.0769 
    122 H122       35.2946   34.7911    3.7184 H         1 UNK         0.0811 
    123 H123       35.1113   35.3651    5.3697 H         1 UNK         0.0811 
    124 H124       33.8144   35.6142    4.2147 H         1 UNK         0.0811 
    125 H125       35.2368   31.6859    3.7562 H         1 UNK         0.3204 
    126 H126       37.2709   31.0841    5.7158 H         1 UNK         0.0748 
    127 H127       37.7929   29.2031    4.1594 H         1 UNK         0.0771 
    128 H128       36.3226   29.5198    3.2498 H         1 UNK         0.0771 
    129 H129       37.6241   30.7119    3.2785 H         1 UNK         0.0771 
    130 H130       33.9582   29.9796    5.2142 H         1 UNK         0.2980 
    131 H131       34.3032   27.6693    7.0489 H         1 UNK         0.0545 
    132 H132       31.9615   30.8114    8.3768 H         1 UNK         0.3459 
    133 H133       32.4198   30.7609    6.6841 H         1 UNK         0.3459 
    134 H134       32.0349   26.9989    6.3116 H         1 UNK         0.0616 
    135 H135       31.9235   28.4108    5.2839 H         1 UNK         0.0616 
    136 H136       31.3054   25.6519    4.0367 H         1 UNK         0.0634 
    137 H137       31.3526   27.1955    3.2199 H         1 UNK         0.0634 
@<TRIPOS>BOND
     1    1    2 1    
     2    1   72 1    
     3    1   73 1    
     4    1   74 1    
     5    2    3 2    
     6    2    4 am   BACKBONE|DICT|INTERRES
     7    4    5 1    
     8    4   75 1    
     9    5    6 1    
    10    5   35 1    
    11    5   76 1    
    12    6    7 1    
    13    6   77 1    
    14    6   78 1    
    15    7    8 1    
    16    8    9 1    
    17    8   79 1    
    18    8   80 1    
    19    9   10 ar   
    20    9   14 ar   
    21   10   11 ar   
    22   10   81 1    
    23   11   12 ar   
    24   11   71 1    
    25   12   13 ar   
    26   12   82 1    
    27   13   14 ar   
    28   13   15 1    
    29   14   83 1    
    30   15   16 1    
    31   15   84 1    
    32   15   85 1    
    33   16   17 1    
    34   17   18 1    
    35   17   86 1    
    36   17   87 1    
    37   18   19 1    
    38   18   37 1    
    39   18   88 1    
    40   19   20 am   BACKBONE|DICT|INTERRES
    41   19   89 1    
    42   20   21 2    
    43   20   22 1    
    44   22   23 1    
    45   22   24 1    
    46   22   90 1    
    47   23   91 1    
    48   23   92 1    
    49   23   93 1    
    50   24   25 am   BACKBONE|DICT|INTERRES
    51   24   94 1    
    52   25   26 2    
    53   25   27 1    
    54   27   28 1    
    55   27   29 1    
    56   27   95 1    
    57   28   96 1    
    58   28   97 1    
    59   28   98 1    
    60   29   30 am   BACKBONE|DICT|INTERRES
    61   29   99 1    
    62   30   31 2    
    63   30   32 1    
    64   32   33 1    
    65   32   34 1    
    66   32  100 1    
    67   33  101 1    
    68   33  102 1    
    69   33  103 1    
    70   34   35 am   BACKBONE|DICT|INTERRES
    71   34  104 1    
    72   35   36 2    
    73   37   38 2    
    74   37   39 am   BACKBONE|DICT|INTERRES
    75   39   40 1    
    76   39  105 1    
    77   40   41 1    
    78   40   42 1    
    79   40  106 1    
    80   41  107 1    
    81   41  108 1    
    82   41  109 1    
    83   42   43 2    
    84   42   44 am   BACKBONE|DICT|INTERRES
    85   44   45 1    
    86   44  110 1    
    87   45   46 1    
    88   45   47 1    
    89   45  111 1    
    90   46  112 1    
    91   46  113 1    
    92   46  114 1    
    93   47   48 2    
    94   47   49 am   BACKBONE|DICT|INTERRES
    95   49   50 1    
    96   49  115 1    
    97   50   51 1    
    98   50   52 1    
    99   50  116 1    
   100   51  117 1    
   101   51  118 1    
   102   51  119 1    
   103   52   53 2    
   104   52   54 am   BACKBONE|DICT|INTERRES
   105   54   55 1    
   106   54  120 1    
   107   55   56 1    
   108   55   57 1    
   109   55  121 1    
   110   56  122 1    
   111   56  123 1    
   112   56  124 1    
   113   57   58 2    
   114   57   59 am   BACKBONE|DICT|INTERRES
   115   59   60 1    
   116   59  125 1    
   117   60   61 1    
   118   60   62 1    
   119   60  126 1    
   120   61  127 1    
   121   61  128 1    
   122   61  129 1    
   123   62   63 2    
   124   62   64 am   BACKBONE|DICT|INTERRES
   125   64   65 1    
   126   64  130 1    
   127   65   66 1    
   128   65   69 1    
   129   65  131 1    
   130   66   67 am   BACKBONE|DICT|INTERRES
   131   66   68 2    
   132   67  132 1    
   133   67  133 1    
   134   69   70 1    
   135   69  134 1    
   136   69  135 1    
   137   70   71 1    
   138   71  136 1    
   139   71  137 1    
@<TRIPOS>SUBSTRUCTURE
     1 UNK         1 GROUP             0       ****    0 ROOT    
