@<TRIPOS>MOLECULE
3R136
137   139    1
SMALL
USER_CHARGES


@<TRIPOS>ATOM
      1 CA         30.2220   19.1159    0.7428 C.3       0 UNK        -0.1979 
      2 C          30.0943   20.0792   -0.4280 C.2       0 UNK         0.4864 
      3 O          29.8598   19.6444   -1.5560 O.2       0 UNK        -0.5359 
      4 N          30.2384   21.3853   -0.1667 N.am      1 UNK        -0.4318 
      5 CA         30.1548   22.4610   -1.1647 C.3       1 UNK         0.0824 
      6 C6         31.0684   23.6551   -0.7809 C.3       12 UNK        -0.0944 
      7 S7         30.5127   24.5774    0.6912 S.3       12 UNK        -0.2672 
      8 C8         31.6560   24.0086    1.9826 C.3       12 UNK         0.0333 
      9 C9         31.1958   24.5411    3.3282 C.ar      12 UNK        -0.0807 
     10 C10        31.8929   25.5686    3.9679 C.ar      12 UNK        -0.0894 
     11 C11        31.4224   26.1045    5.1712 C.ar      12 UNK        -0.0804 
     12 C12        30.2444   25.6039    5.7344 C.ar      12 UNK        -0.0824 
     13 C13        29.5351   24.5822    5.0948 C.ar      12 UNK        -0.0762 
     14 C14        30.0279   24.0394    3.9064 C.ar      12 UNK        -0.0782 
     15 C15        28.2030   24.1030    5.6477 C.3       12 UNK         0.0230 
     16 S16        26.8802   25.3206    5.3500 S.3       12 UNK        -0.2608 
     17 C17        26.9059   25.5294    3.5292 C.3       12 UNK        -0.0989 
     18 CA         27.6866   26.7727    3.0131 C.3       5 UNK         0.0716 
     19 N          27.7525   26.7656    1.5429 N.am      5 UNK        -0.4135 
     20 C          28.3557   27.6912    0.7755 C.2       4 UNK         0.5031 
     21 O          29.0397   28.6049    1.2302 O.2       4 UNK        -0.5229 
     22 CA         28.0857   27.6764   -0.7443 C.3       4 UNK         0.0329 
     23 CB         29.3306   27.2623   -1.5430 C.3       4 UNK        -0.2001 
     24 N          26.9439   26.8550   -1.1536 N.am      4 UNK        -0.4303 
     25 C          25.6729   27.0661   -0.7808 C.2       3 UNK         0.5044 
     26 O          25.3162   28.0207   -0.0887 O.2       3 UNK        -0.5152 
     27 CA         24.6329   26.0069   -1.1896 C.3       3 UNK         0.0319 
     28 CB         23.8758   26.4603   -2.4478 C.3       3 UNK        -0.2001 
     29 N          25.1710   24.6576   -1.4103 N.am      3 UNK        -0.4354 
     30 C          25.8795   23.9328   -0.5309 C.2       2 UNK         0.4964 
     31 O          26.2273   24.3513    0.5750 O.2       2 UNK        -0.5047 
     32 CA         26.2671   22.4992   -0.9394 C.3       2 UNK         0.0288 
     33 CB         25.7576   22.0651   -2.3346 C.3       2 UNK        -0.2113 
     34 N          27.7109   22.2736   -0.8162 N.am      2 UNK        -0.4145 
     35 C          28.6990   22.8874   -1.4889 C.2       1 UNK         0.5006 
     36 O          28.5036   23.7573   -2.3408 O.2       1 UNK        -0.5103 
     37 C          27.1113   28.0960    3.5814 C.2       5 UNK         0.5055 
     38 O          27.4979   28.5072    4.6768 O.2       5 UNK        -0.5220 
     39 N          26.2236   28.7602    2.8233 N.am      6 UNK        -0.4450 
     40 CA         25.6480   30.0609    3.1701 C.3       6 UNK         0.0367 
     41 CB         24.4587   30.3453    2.2386 C.3       6 UNK        -0.1929 
     42 C          26.6522   31.2309    3.1285 C.2       6 UNK         0.5070 
     43 O          26.3627   32.2731    3.7179 O.2       6 UNK        -0.5237 
     44 N          27.7908   31.0690    2.4394 N.am      7 UNK        -0.4739 
     45 CA         28.8394   32.0802    2.3349 C.3       7 UNK         0.0276 
     46 CB         29.3777   32.1042    0.8936 C.3       7 UNK        -0.1927 
     47 C          29.9633   31.7502    3.3234 C.2       7 UNK         0.5013 
     48 O          30.5717   30.6839    3.2202 O.2       7 UNK        -0.5193 
     49 N          30.2728   32.6911    4.2271 N.am      8 UNK        -0.4253 
     50 CA         31.3778   32.5820    5.1908 C.3       8 UNK         0.0242 
     51 CB         31.3600   33.7934    6.1360 C.3       8 UNK        -0.2000 
     52 C          32.7590   32.4380    4.5255 C.2       8 UNK         0.4948 
     53 O          33.6369   31.7784    5.0826 O.2       8 UNK        -0.5275 
     54 N          32.9049   32.9992    3.3161 N.am      9 UNK        -0.4246 
     55 CA         34.0835   32.8975    2.4514 C.3       9 UNK         0.0261 
     56 CB         33.8613   33.7680    1.2034 C.3       9 UNK        -0.1959 
     57 C          34.4642   31.4605    2.0415 C.2       9 UNK         0.5033 
     58 O          35.6095   31.2470    1.6416 O.2       9 UNK        -0.5390 
     59 N          33.5332   30.4997    2.1593 N.am      10 UNK        -0.4215 
     60 CA         33.7998   29.0740    1.9517 C.3       10 UNK         0.0240 
     61 CB         32.4689   28.3280    1.7595 C.3       10 UNK        -0.1982 
     62 C          34.6380   28.4382    3.0810 C.2       10 UNK         0.4970 
     63 O          35.2221   27.3789    2.8499 O.2       10 UNK        -0.4916 
     64 N          34.6927   29.0800    4.2576 N.am      11 UNK        -0.4279 
     65 CA         35.5165   28.6787    5.4097 C.3       11 UNK         0.1003 
     66 C          36.5679   29.7587    5.7803 C.2       11 UNK         0.5709 
     67 N          36.2859   31.0458    5.6205 N.am      11 UNK        -0.7358 
     68 O          37.6685   29.4206    6.2096 O.2       11 UNK        -0.4999 
     69 C69        34.6460   28.3142    6.6419 C.3       12 UNK        -0.0954 
     70 S70        33.7979   26.7164    6.4298 S.3       12 UNK        -0.2268 
     71 C71        32.1685   27.2537    5.8300 C.3       12 UNK         0.0203 
     72 H72        29.3012   18.5456    0.8624 H         1 UNK         0.0888 
     73 H73        31.0361   18.4143    0.5632 H         1 UNK         0.0888 
     74 H74        30.4235   19.6352    1.6796 H         1 UNK         0.0888 
     75 H75        30.4176   21.6875    0.7797 H         1 UNK         0.3017 
     76 H76        30.5492   22.0669   -2.1040 H         1 UNK         0.0873 
     77 H77        31.1285   24.3583   -1.6133 H         1 UNK         0.0745 
     78 H78        32.0911   23.3079   -0.6256 H         1 UNK         0.0745 
     79 H79        32.6664   24.3489    1.7497 H         1 UNK         0.0705 
     80 H80        31.6856   22.9190    2.0090 H         1 UNK         0.0705 
     81 H81        32.7966   25.9645    3.5256 H         1 UNK         0.1334 
     82 H82        29.8568   26.0317    6.6490 H         1 UNK         0.1417 
     83 H83        29.4744   23.2616    3.3985 H         1 UNK         0.1562 
     84 H84        28.2941   23.9307    6.7210 H         1 UNK         0.0748 
     85 H85        27.9173   23.1467    5.2065 H         1 UNK         0.0748 
     86 H86        25.8705   25.5727    3.1857 H         1 UNK         0.0940 
     87 H87        27.3174   24.6230    3.0832 H         1 UNK         0.0940 
     88 H88        28.7180   26.7035    3.3632 H         1 UNK         0.0703 
     89 H89        27.2306   26.0258    1.0835 H         1 UNK         0.3081 
     90 H90        27.8520   28.7081   -1.0161 H         1 UNK         0.0719 
     91 H91        29.5221   26.1943   -1.4623 H         1 UNK         0.0809 
     92 H92        29.2152   27.4972   -2.6011 H         1 UNK         0.0809 
     93 H93        30.2213   27.7845   -1.1902 H         1 UNK         0.0809 
     94 H94        27.1514   26.0274   -1.6964 H         1 UNK         0.2990 
     95 H95        23.9165   25.9343   -0.3688 H         1 UNK         0.0690 
     96 H96        24.5332   26.5138   -3.3167 H         1 UNK         0.0788 
     97 H97        23.4410   27.4511   -2.3065 H         1 UNK         0.0788 
     98 H98        23.0566   25.7816   -2.6859 H         1 UNK         0.0788 
     99 H99        24.9530   24.2295   -2.2986 H         1 UNK         0.2993 
    100 H100       25.7939   21.8475   -0.2034 H         1 UNK         0.0949 
    101 H101       26.1650   22.6812   -3.1371 H         1 UNK         0.0767 
    102 H102       26.0362   21.0321   -2.5443 H         1 UNK         0.0767 
    103 H103       24.6694   22.1150   -2.3930 H         1 UNK         0.0767 
    104 H104       27.9858   21.6024   -0.1141 H         1 UNK         0.3013 
    105 H105       25.9669   28.3813    1.9177 H         1 UNK         0.3121 
    106 H106       25.2701   29.9966    4.1927 H         1 UNK         0.0774 
    107 H107       23.9670   31.2814    2.5067 H         1 UNK         0.0815 
    108 H108       24.7746   30.4299    1.1980 H         1 UNK         0.0815 
    109 H109       23.7080   29.5571    2.2980 H         1 UNK         0.0815 
    110 H110       28.0251   30.1557    2.0600 H         1 UNK         0.2987 
    111 H111       28.4387   33.0716    2.5577 H         1 UNK         0.0949 
    112 H112       29.8113   31.1453    0.6056 H         1 UNK         0.0806 
    113 H113       28.5878   32.3398    0.1804 H         1 UNK         0.0806 
    114 H114       30.1553   32.8602    0.7789 H         1 UNK         0.0806 
    115 H115       29.7246   33.5393    4.2585 H         1 UNK         0.3010 
    116 H116       31.2102   31.6803    5.7839 H         1 UNK         0.0829 
    117 H117       32.1601   33.7226    6.8745 H         1 UNK         0.0813 
    118 H118       31.4972   34.7312    5.5962 H         1 UNK         0.0813 
    119 H119       30.4204   33.8551    6.6854 H         1 UNK         0.0813 
    120 H120       32.1231   33.5197    2.9467 H         1 UNK         0.3038 
    121 H121       34.9302   33.3043    3.0081 H         1 UNK         0.0769 
    122 H122       34.7347   33.7448    0.5500 H         1 UNK         0.0811 
    123 H123       33.6888   34.8108    1.4703 H         1 UNK         0.0811 
    124 H124       33.0079   33.4234    0.6177 H         1 UNK         0.0811 
    125 H125       32.6054   30.7402    2.4933 H         1 UNK         0.3204 
    126 H126       34.3735   28.9704    1.0282 H         1 UNK         0.0748 
    127 H127       32.6378   27.2814    1.5038 H         1 UNK         0.0771 
    128 H128       31.8541   28.3508    2.6599 H         1 UNK         0.0771 
    129 H129       31.8815   28.7632    0.9506 H         1 UNK         0.0771 
    130 H130       34.2070   29.9633    4.3606 H         1 UNK         0.2980 
    131 H131       36.0994   27.7936    5.1476 H         1 UNK         0.0545 
    132 H132       35.3501   31.3482    5.3601 H         1 UNK         0.3459 
    133 H133       36.9842   31.7316    5.8578 H         1 UNK         0.3459 
    134 H134       35.2640   28.2195    7.5370 H         1 UNK         0.0616 
    135 H135       33.9200   29.1008    6.8564 H         1 UNK         0.0616 
    136 H136       32.2809   28.0610    5.1063 H         1 UNK         0.0634 
    137 H137       31.6000   27.6656    6.6651 H         1 UNK         0.0634 
@<TRIPOS>BOND
     1    1    2 1    
     2    1   72 1    
     3    1   73 1    
     4    1   74 1    
     5    2    3 2    
     6    2    4 am   BACKBONE|DICT|INTERRES
     7    4    5 1    
     8    4   75 1    
     9    5    6 1    
    10    5   35 1    
    11    5   76 1    
    12    6    7 1    
    13    6   77 1    
    14    6   78 1    
    15    7    8 1    
    16    8    9 1    
    17    8   79 1    
    18    8   80 1    
    19    9   10 ar   
    20    9   14 ar   
    21   10   11 ar   
    22   10   81 1    
    23   11   12 ar   
    24   11   71 1    
    25   12   13 ar   
    26   12   82 1    
    27   13   14 ar   
    28   13   15 1    
    29   14   83 1    
    30   15   16 1    
    31   15   84 1    
    32   15   85 1    
    33   16   17 1    
    34   17   18 1    
    35   17   86 1    
    36   17   87 1    
    37   18   19 1    
    38   18   37 1    
    39   18   88 1    
    40   19   20 am   BACKBONE|DICT|INTERRES
    41   19   89 1    
    42   20   21 2    
    43   20   22 1    
    44   22   23 1    
    45   22   24 1    
    46   22   90 1    
    47   23   91 1    
    48   23   92 1    
    49   23   93 1    
    50   24   25 am   BACKBONE|DICT|INTERRES
    51   24   94 1    
    52   25   26 2    
    53   25   27 1    
    54   27   28 1    
    55   27   29 1    
    56   27   95 1    
    57   28   96 1    
    58   28   97 1    
    59   28   98 1    
    60   29   30 am   BACKBONE|DICT|INTERRES
    61   29   99 1    
    62   30   31 2    
    63   30   32 1    
    64   32   33 1    
    65   32   34 1    
    66   32  100 1    
    67   33  101 1    
    68   33  102 1    
    69   33  103 1    
    70   34   35 am   BACKBONE|DICT|INTERRES
    71   34  104 1    
    72   35   36 2    
    73   37   38 2    
    74   37   39 am   BACKBONE|DICT|INTERRES
    75   39   40 1    
    76   39  105 1    
    77   40   41 1    
    78   40   42 1    
    79   40  106 1    
    80   41  107 1    
    81   41  108 1    
    82   41  109 1    
    83   42   43 2    
    84   42   44 am   BACKBONE|DICT|INTERRES
    85   44   45 1    
    86   44  110 1    
    87   45   46 1    
    88   45   47 1    
    89   45  111 1    
    90   46  112 1    
    91   46  113 1    
    92   46  114 1    
    93   47   48 2    
    94   47   49 am   BACKBONE|DICT|INTERRES
    95   49   50 1    
    96   49  115 1    
    97   50   51 1    
    98   50   52 1    
    99   50  116 1    
   100   51  117 1    
   101   51  118 1    
   102   51  119 1    
   103   52   53 2    
   104   52   54 am   BACKBONE|DICT|INTERRES
   105   54   55 1    
   106   54  120 1    
   107   55   56 1    
   108   55   57 1    
   109   55  121 1    
   110   56  122 1    
   111   56  123 1    
   112   56  124 1    
   113   57   58 2    
   114   57   59 am   BACKBONE|DICT|INTERRES
   115   59   60 1    
   116   59  125 1    
   117   60   61 1    
   118   60   62 1    
   119   60  126 1    
   120   61  127 1    
   121   61  128 1    
   122   61  129 1    
   123   62   63 2    
   124   62   64 am   BACKBONE|DICT|INTERRES
   125   64   65 1    
   126   64  130 1    
   127   65   66 1    
   128   65   69 1    
   129   65  131 1    
   130   66   67 am   BACKBONE|DICT|INTERRES
   131   66   68 2    
   132   67  132 1    
   133   67  133 1    
   134   69   70 1    
   135   69  134 1    
   136   69  135 1    
   137   70   71 1    
   138   71  136 1    
   139   71  137 1    
@<TRIPOS>SUBSTRUCTURE
     1 UNK         1 GROUP             0       ****    0 ROOT    
