@<TRIPOS>MOLECULE
3R136
137   139    1
SMALL
USER_CHARGES


@<TRIPOS>ATOM
      1 CA         27.5807   20.3465   -0.7574 C.3       0 UNK        -0.1979 
      2 C          28.0402   21.3094   -1.8420 C.2       0 UNK         0.4864 
      3 O          27.5993   21.1990   -2.9868 O.2       0 UNK        -0.5359 
      4 N          28.9228   22.2535   -1.4897 N.am      1 UNK        -0.4318 
      5 CA         29.4429   23.2998   -2.3806 C.3       1 UNK         0.0824 
      6 C6         30.7554   23.9212   -1.8374 C.3       12 UNK        -0.0944 
      7 S7         30.6550   24.5155   -0.1098 S.3       12 UNK        -0.2672 
      8 C8         31.7769   23.3498    0.7224 C.3       12 UNK         0.0333 
      9 C9         32.0405   23.7675    2.1602 C.ar      12 UNK        -0.0807 
     10 C10        33.0787   24.6594    2.4458 C.ar      12 UNK        -0.0894 
     11 C11        33.3435   25.0461    3.7624 C.ar      12 UNK        -0.0804 
     12 C12        32.5583   24.5307    4.7985 C.ar      12 UNK        -0.0824 
     13 C13        31.5178   23.6341    4.5276 C.ar      12 UNK        -0.0762 
     14 C14        31.2650   23.2541    3.2051 C.ar      12 UNK        -0.0782 
     15 C15        30.6842   23.0636    5.6712 C.3       12 UNK         0.0230 
     16 S16        28.9341   23.5810    5.6201 S.3       12 UNK        -0.2608 
     17 C17        29.0752   25.3953    5.5091 C.3       12 UNK        -0.0989 
     18 CA         28.5740   25.8952    4.1318 C.3       5 UNK         0.0716 
     19 N          27.1064   25.8952    4.0559 N.am      5 UNK        -0.4135 
     20 C          26.3957   26.1372    2.9474 C.2       4 UNK         0.5031 
     21 O          26.8970   26.3969    1.8508 O.2       4 UNK        -0.5229 
     22 CA         24.8689   26.1156    3.0947 C.3       4 UNK         0.0329 
     23 CB         24.3582   27.3736    3.8202 C.3       4 UNK        -0.2001 
     24 N          24.2957   26.0600    1.7560 N.am      4 UNK        -0.4303 
     25 C          23.1856   25.4130    1.3888 C.2       3 UNK         0.5044 
     26 O          22.4204   24.8631    2.1822 O.2       3 UNK        -0.5152 
     27 CA         22.8707   25.3615   -0.1217 C.3       3 UNK         0.0319 
     28 CB         21.7222   26.3255   -0.4624 C.3       3 UNK        -0.2001 
     29 N          24.0173   25.6584   -0.9927 N.am      3 UNK        -0.4354 
     30 C          25.1184   24.9013   -1.0983 C.2       2 UNK         0.4964 
     31 O          25.2767   23.8398   -0.4875 O.2       2 UNK        -0.5047 
     32 CA         26.2294   25.4214   -2.0247 C.3       2 UNK         0.0288 
     33 CB         26.6226   26.8837   -1.7237 C.3       2 UNK        -0.2113 
     34 N          27.3837   24.5441   -1.8683 N.am      2 UNK        -0.4145 
     35 C          28.3940   24.3809   -2.7285 C.2       1 UNK         0.5006 
     36 O          28.5132   25.0249   -3.7729 O.2       1 UNK        -0.5103 
     37 C          29.2082   27.2558    3.7847 C.2       5 UNK         0.5055 
     38 O          30.3137   27.2734    3.2474 O.2       5 UNK        -0.5220 
     39 N          28.5081   28.3660    4.0605 N.am      6 UNK        -0.4450 
     40 CA         28.9431   29.7421    3.7937 C.3       6 UNK         0.0367 
     41 CB         28.1026   30.7041    4.6535 C.3       6 UNK        -0.1929 
     42 C          28.9301   30.1186    2.2938 C.2       6 UNK         0.5070 
     43 O          28.3901   31.1615    1.9217 O.2       6 UNK        -0.5237 
     44 N          29.5399   29.2718    1.4555 N.am      7 UNK        -0.4739 
     45 CA         29.7808   29.5033    0.0286 C.3       7 UNK         0.0276 
     46 CB         30.1415   28.1664   -0.6385 C.3       7 UNK        -0.1927 
     47 C          30.8899   30.5442   -0.2122 C.2       7 UNK         0.5013 
     48 O          30.9069   31.1837   -1.2646 O.2       7 UNK        -0.5193 
     49 N          31.7766   30.7035    0.7756 N.am      8 UNK        -0.4253 
     50 CA         32.7865   31.7466    0.8821 C.3       8 UNK         0.0242 
     51 CB         34.1638   31.1631    0.5252 C.3       8 UNK        -0.2000 
     52 C          32.7657   32.2425    2.3312 C.2       8 UNK         0.4948 
     53 O          32.4212   31.4692    3.2298 O.2       8 UNK        -0.5275 
     54 N          33.1670   33.5031    2.5449 N.am      9 UNK        -0.4246 
     55 CA         33.1886   34.1626    3.8584 C.3       9 UNK         0.0261 
     56 CB         33.6056   35.6324    3.6888 C.3       9 UNK        -0.1959 
     57 C          34.0853   33.4645    4.8971 C.2       9 UNK         0.5033 
     58 O          33.7545   33.4692    6.0836 O.2       9 UNK        -0.5390 
     59 N          35.1723   32.8355    4.4277 N.am      10 UNK        -0.4215 
     60 CA         36.0900   32.0193    5.2277 C.3       10 UNK         0.0240 
     61 CB         37.2948   31.6221    4.3588 C.3       10 UNK        -0.1982 
     62 C          35.4392   30.7657    5.8447 C.2       10 UNK         0.4970 
     63 O          35.9376   30.2777    6.8599 O.2       10 UNK        -0.4916 
     64 N          34.3506   30.2751    5.2381 N.am      11 UNK        -0.4279 
     65 CA         33.5505   29.1485    5.7368 C.3       11 UNK         0.1003 
     66 C          32.4389   29.5749    6.7406 C.2       11 UNK         0.5709 
     67 N          32.2575   30.8565    7.0438 N.am      11 UNK        -0.7358 
     68 O          31.7339   28.7208    7.2724 O.2       11 UNK        -0.4999 
     69 C69        32.9653   28.3060    4.5754 C.3       12 UNK        -0.0954 
     70 S70        34.2318   27.6728    3.4258 S.3       12 UNK        -0.2268 
     71 C71        34.5028   25.9886    4.0650 C.3       12 UNK         0.0203 
     72 H72        26.5093   20.4574   -0.5894 H         1 UNK         0.0888 
     73 H73        27.7750   19.3177   -1.0605 H         1 UNK         0.0888 
     74 H74        28.0924   20.5235    0.1889 H         1 UNK         0.0888 
     75 H75        29.2478   22.3051   -0.5347 H         1 UNK         0.3017 
     76 H76        29.6904   22.8174   -3.3291 H         1 UNK         0.0873 
     77 H77        31.0788   24.7524   -2.4674 H         1 UNK         0.0745 
     78 H78        31.5534   23.1815   -1.9149 H         1 UNK         0.0745 
     79 H79        31.3518   22.3457    0.6890 H         1 UNK         0.0705 
     80 H80        32.7219   23.3031    0.1787 H         1 UNK         0.0705 
     81 H81        33.6825   25.0568    1.6413 H         1 UNK         0.1334 
     82 H82        32.7628   24.8236    5.8192 H         1 UNK         0.1417 
     83 H83        30.4614   22.5624    2.9920 H         1 UNK         0.1562 
     84 H84        31.1039   23.3528    6.6360 H         1 UNK         0.0748 
     85 H85        30.7296   21.9742    5.6361 H         1 UNK         0.0748 
     86 H86        30.1129   25.6830    5.6889 H         1 UNK         0.0940 
     87 H87        28.5063   25.8501    6.3219 H         1 UNK         0.0940 
     88 H88        28.9322   25.2069    3.3620 H         1 UNK         0.0703 
     89 H89        26.6174   25.6701    4.9101 H         1 UNK         0.3081 
     90 H90        24.5890   25.2210    3.6552 H         1 UNK         0.0719 
     91 H91        24.6521   28.2859    3.2993 H         1 UNK         0.0809 
     92 H92        23.2707   27.3701    3.8968 H         1 UNK         0.0809 
     93 H93        24.7511   27.4335    4.8357 H         1 UNK         0.0809 
     94 H94        24.9117   26.4184    1.0368 H         1 UNK         0.2990 
     95 H95        22.5397   24.3449   -0.3445 H         1 UNK         0.0690 
     96 H96        21.4243   26.2362   -1.5073 H         1 UNK         0.0788 
     97 H97        21.9992   27.3643   -0.2777 H         1 UNK         0.0788 
     98 H98        20.8397   26.1117    0.1424 H         1 UNK         0.0788 
     99 H99        23.9633   26.5123   -1.5294 H         1 UNK         0.2993 
    100 H100       25.8668   25.3443   -3.0519 H         1 UNK         0.0949 
    101 H101       26.9461   27.0081   -0.6906 H         1 UNK         0.0767 
    102 H102       27.4385   27.2165   -2.3655 H         1 UNK         0.0767 
    103 H103       25.7912   27.5681   -1.8932 H         1 UNK         0.0767 
    104 H104       27.3229   23.9343   -1.0622 H         1 UNK         0.3013 
    105 H105       27.5905   28.2580    4.4655 H         1 UNK         0.3121 
    106 H106       29.9798   29.8364    4.1244 H         1 UNK         0.0774 
    107 H107       27.0482   30.6766    4.3764 H         1 UNK         0.0815 
    108 H108       28.4452   31.7333    4.5363 H         1 UNK         0.0815 
    109 H109       28.1808   30.4613    5.7134 H         1 UNK         0.0815 
    110 H110       29.9431   28.4303    1.8644 H         1 UNK         0.2987 
    111 H111       28.8605   29.8818   -0.4214 H         1 UNK         0.0949 
    112 H112       29.3597   27.4221   -0.4870 H         1 UNK         0.0806 
    113 H113       30.2707   28.2873   -1.7148 H         1 UNK         0.0806 
    114 H114       31.0702   27.7546   -0.2408 H         1 UNK         0.0806 
    115 H115       31.6412   30.1758    1.6289 H         1 UNK         0.3010 
    116 H116       32.5457   32.5776    0.2154 H         1 UNK         0.0829 
    117 H117       34.9429   31.9234    0.5907 H         1 UNK         0.0813 
    118 H118       34.4424   30.3479    1.1952 H         1 UNK         0.0813 
    119 H119       34.1751   30.7750   -0.4935 H         1 UNK         0.0813 
    120 H120       33.4432   34.0666    1.7528 H         1 UNK         0.3038 
    121 H121       32.1689   34.1406    4.2491 H         1 UNK         0.0769 
    122 H122       34.6073   35.7237    3.2670 H         1 UNK         0.0811 
    123 H123       33.6084   36.1502    4.6492 H         1 UNK         0.0811 
    124 H124       32.9155   36.1690    3.0373 H         1 UNK         0.0811 
    125 H125       35.3585   32.8900    3.4372 H         1 UNK         0.3204 
    126 H126       36.4492   32.6379    6.0528 H         1 UNK         0.0748 
    127 H127       38.0153   31.0385    4.9338 H         1 UNK         0.0771 
    128 H128       36.9932   31.0153    3.5038 H         1 UNK         0.0771 
    129 H129       37.8204   32.4997    3.9816 H         1 UNK         0.0771 
    130 H130       33.9617   30.7547    4.4347 H         1 UNK         0.2980 
    131 H131       34.2082   28.4859    6.3021 H         1 UNK         0.0545 
    132 H132       32.8329   31.5794    6.6314 H         1 UNK         0.3459 
    133 H133       31.5373   31.1054    7.7024 H         1 UNK         0.3459 
    134 H134       32.2666   28.9076    3.9938 H         1 UNK         0.0616 
    135 H135       32.3893   27.4644    4.9623 H         1 UNK         0.0616 
    136 H136       35.4097   25.5876    3.6108 H         1 UNK         0.0634 
    137 H137       34.6968   26.0408    5.1374 H         1 UNK         0.0634 
@<TRIPOS>BOND
     1    1    2 1    
     2    1   72 1    
     3    1   73 1    
     4    1   74 1    
     5    2    3 2    
     6    2    4 am   BACKBONE|DICT|INTERRES
     7    4    5 1    
     8    4   75 1    
     9    5    6 1    
    10    5   35 1    
    11    5   76 1    
    12    6    7 1    
    13    6   77 1    
    14    6   78 1    
    15    7    8 1    
    16    8    9 1    
    17    8   79 1    
    18    8   80 1    
    19    9   10 ar   
    20    9   14 ar   
    21   10   11 ar   
    22   10   81 1    
    23   11   12 ar   
    24   11   71 1    
    25   12   13 ar   
    26   12   82 1    
    27   13   14 ar   
    28   13   15 1    
    29   14   83 1    
    30   15   16 1    
    31   15   84 1    
    32   15   85 1    
    33   16   17 1    
    34   17   18 1    
    35   17   86 1    
    36   17   87 1    
    37   18   19 1    
    38   18   37 1    
    39   18   88 1    
    40   19   20 am   BACKBONE|DICT|INTERRES
    41   19   89 1    
    42   20   21 2    
    43   20   22 1    
    44   22   23 1    
    45   22   24 1    
    46   22   90 1    
    47   23   91 1    
    48   23   92 1    
    49   23   93 1    
    50   24   25 am   BACKBONE|DICT|INTERRES
    51   24   94 1    
    52   25   26 2    
    53   25   27 1    
    54   27   28 1    
    55   27   29 1    
    56   27   95 1    
    57   28   96 1    
    58   28   97 1    
    59   28   98 1    
    60   29   30 am   BACKBONE|DICT|INTERRES
    61   29   99 1    
    62   30   31 2    
    63   30   32 1    
    64   32   33 1    
    65   32   34 1    
    66   32  100 1    
    67   33  101 1    
    68   33  102 1    
    69   33  103 1    
    70   34   35 am   BACKBONE|DICT|INTERRES
    71   34  104 1    
    72   35   36 2    
    73   37   38 2    
    74   37   39 am   BACKBONE|DICT|INTERRES
    75   39   40 1    
    76   39  105 1    
    77   40   41 1    
    78   40   42 1    
    79   40  106 1    
    80   41  107 1    
    81   41  108 1    
    82   41  109 1    
    83   42   43 2    
    84   42   44 am   BACKBONE|DICT|INTERRES
    85   44   45 1    
    86   44  110 1    
    87   45   46 1    
    88   45   47 1    
    89   45  111 1    
    90   46  112 1    
    91   46  113 1    
    92   46  114 1    
    93   47   48 2    
    94   47   49 am   BACKBONE|DICT|INTERRES
    95   49   50 1    
    96   49  115 1    
    97   50   51 1    
    98   50   52 1    
    99   50  116 1    
   100   51  117 1    
   101   51  118 1    
   102   51  119 1    
   103   52   53 2    
   104   52   54 am   BACKBONE|DICT|INTERRES
   105   54   55 1    
   106   54  120 1    
   107   55   56 1    
   108   55   57 1    
   109   55  121 1    
   110   56  122 1    
   111   56  123 1    
   112   56  124 1    
   113   57   58 2    
   114   57   59 am   BACKBONE|DICT|INTERRES
   115   59   60 1    
   116   59  125 1    
   117   60   61 1    
   118   60   62 1    
   119   60  126 1    
   120   61  127 1    
   121   61  128 1    
   122   61  129 1    
   123   62   63 2    
   124   62   64 am   BACKBONE|DICT|INTERRES
   125   64   65 1    
   126   64  130 1    
   127   65   66 1    
   128   65   69 1    
   129   65  131 1    
   130   66   67 am   BACKBONE|DICT|INTERRES
   131   66   68 2    
   132   67  132 1    
   133   67  133 1    
   134   69   70 1    
   135   69  134 1    
   136   69  135 1    
   137   70   71 1    
   138   71  136 1    
   139   71  137 1    
@<TRIPOS>SUBSTRUCTURE
     1 UNK         1 GROUP             0       ****    0 ROOT    
