@<TRIPOS>MOLECULE
3R136
137   139    1
SMALL
USER_CHARGES


@<TRIPOS>ATOM
      1 CA         24.8279   23.4193    4.1398 C.3       0 UNK        -0.1979 
      2 C          25.7679   24.5510    3.7334 C.2       0 UNK         0.4864 
      3 O          25.4246   25.7141    3.9328 O.2       0 UNK        -0.5359 
      4 N          26.9513   24.2672    3.1723 N.am      1 UNK        -0.4318 
      5 CA         27.4503   22.9364    2.8094 C.3       1 UNK         0.0824 
      6 C6         28.9951   22.8511    2.8505 C.3       12 UNK        -0.0944 
      7 S7         29.7017   23.2764    4.4757 S.3       12 UNK        -0.2672 
      8 C8         31.4449   22.8176    4.2192 C.3       12 UNK         0.0333 
      9 C9         32.1692   23.7808    3.2863 C.ar      12 UNK        -0.0807 
     10 C10        32.8688   24.8732    3.8085 C.ar      12 UNK        -0.0894 
     11 C11        33.5859   25.7354    2.9712 C.ar      12 UNK        -0.0804 
     12 C12        33.5733   25.4979    1.5919 C.ar      12 UNK        -0.0824 
     13 C13        32.8607   24.4255    1.0512 C.ar      12 UNK        -0.0762 
     14 C14        32.1718   23.5610    1.9052 C.ar      12 UNK        -0.0782 
     15 C15        32.8741   24.1826   -0.4524 C.3       12 UNK         0.0230 
     16 S16        32.2507   25.6114   -1.3990 S.3       12 UNK        -0.2608 
     17 C17        30.4655   25.5687   -1.0327 C.3       12 UNK        -0.0989 
     18 CA         29.9804   26.8657   -0.3201 C.3       5 UNK         0.0716 
     19 N          28.9296   27.5432   -1.0766 N.am      5 UNK        -0.4135 
     20 C          28.6321   28.8450   -0.9555 C.2       4 UNK         0.5031 
     21 O          29.2895   29.6342   -0.2766 O.2       4 UNK        -0.5229 
     22 CA         27.3949   29.3665   -1.7098 C.3       4 UNK         0.0329 
     23 CB         27.8097   30.0024   -3.0465 C.3       4 UNK        -0.2001 
     24 N          26.3845   28.3361   -1.9596 N.am      4 UNK        -0.4303 
     25 C          25.6371   27.7480   -1.0151 C.2       3 UNK         0.5044 
     26 O          25.6726   28.0534    0.1770 O.2       3 UNK        -0.5152 
     27 CA         24.6965   26.6153   -1.4695 C.3       3 UNK         0.0319 
     28 CB         24.3318   26.6661   -2.9715 C.3       3 UNK        -0.2001 
     29 N          25.2220   25.2925   -1.1100 N.am      3 UNK        -0.4354 
     30 C          26.3998   24.7641   -1.4749 C.2       2 UNK         0.4964 
     31 O          27.2404   25.3516   -2.1601 O.2       2 UNK        -0.5047 
     32 CA         26.6947   23.3584   -0.9401 C.3       2 UNK         0.0288 
     33 CB         27.7892   22.6248   -1.7413 C.3       2 UNK        -0.2113 
     34 N          27.0981   23.4869    0.4542 N.am      2 UNK        -0.4145 
     35 C          26.9405   22.5598    1.4064 C.2       1 UNK         0.5006 
     36 O          26.4069   21.4648    1.2233 O.2       1 UNK        -0.5103 
     37 C          29.4299   26.5876    1.0879 C.2       5 UNK         0.5055 
     38 O          28.5268   25.7598    1.2267 O.2       5 UNK        -0.5220 
     39 N          29.9490   27.2918    2.0955 N.am      6 UNK        -0.4450 
     40 CA         29.5795   27.1449    3.4965 C.3       6 UNK         0.0367 
     41 CB         28.2117   27.7994    3.7668 C.3       6 UNK        -0.1929 
     42 C          30.6615   27.8121    4.3414 C.2       6 UNK         0.5070 
     43 O          31.2474   28.8058    3.9015 O.2       6 UNK        -0.5237 
     44 N          30.8774   27.2954    5.5569 N.am      7 UNK        -0.4739 
     45 CA         31.8148   27.8577    6.5353 C.3       7 UNK         0.0276 
     46 CB         31.9471   26.9049    7.7332 C.3       7 UNK        -0.1927 
     47 C          31.4105   29.2686    6.9939 C.2       7 UNK         0.5013 
     48 O          32.2690   30.1447    7.0908 O.2       7 UNK        -0.5193 
     49 N          30.1007   29.4796    7.1912 N.am      8 UNK        -0.4253 
     50 CA         29.4977   30.7731    7.5311 C.3       8 UNK         0.0242 
     51 CB         28.0215   30.5597    7.9036 C.3       8 UNK        -0.2000 
     52 C          29.6222   31.8275    6.4147 C.2       8 UNK         0.4948 
     53 O          29.6348   33.0214    6.7148 O.2       8 UNK        -0.5275 
     54 N          29.7296   31.3733    5.1581 N.am      9 UNK        -0.4246 
     55 CA         29.9654   32.2127    3.9813 C.3       9 UNK         0.0261 
     56 CB         29.3075   31.5494    2.7579 C.3       9 UNK        -0.1959 
     57 C          31.4630   32.4634    3.7181 C.2       9 UNK         0.5033 
     58 O          31.7787   33.2387    2.8150 O.2       9 UNK        -0.5390 
     59 N          32.3487   31.8052    4.4853 N.am      10 UNK        -0.4215 
     60 CA         33.8065   31.7589    4.3263 C.3       10 UNK         0.0240 
     61 CB         34.4437   33.1465    4.5576 C.3       10 UNK        -0.1982 
     62 C          34.2320   31.0983    2.9993 C.2       10 UNK         0.4970 
     63 O          35.1700   31.5698    2.3534 O.2       10 UNK        -0.4916 
     64 N          33.5376   30.0075    2.6440 N.am      11 UNK        -0.4279 
     65 CA         33.7149   29.1832    1.4376 C.3       11 UNK         0.1003 
     66 C          33.2433   29.8858    0.1293 C.2       11 UNK         0.5709 
     67 N          33.2009   29.1605   -0.9812 N.am      11 UNK        -0.7358 
     68 O          32.8983   31.0647    0.0973 O.2       11 UNK        -0.4999 
     69 C69        35.1513   28.5872    1.3006 C.3       12 UNK        -0.0954 
     70 S70        35.7864   27.5343    2.6643 S.3       12 UNK        -0.2268 
     71 C71        34.3426   26.9074    3.6005 C.3       12 UNK         0.0203 
     72 H72        24.6053   22.7671    3.2959 H         1 UNK         0.0888 
     73 H73        25.2662   22.8247    4.9408 H         1 UNK         0.0888 
     74 H74        23.8822   23.8205    4.5040 H         1 UNK         0.0888 
     75 H75        27.5347   25.0331    2.8539 H         1 UNK         0.3017 
     76 H76        27.0702   22.1948    3.5139 H         1 UNK         0.0873 
     77 H77        29.4348   23.5162    2.1079 H         1 UNK         0.0745 
     78 H78        29.3213   21.8417    2.5914 H         1 UNK         0.0745 
     79 H79        31.5030   21.7992    3.8320 H         1 UNK         0.0705 
     80 H80        31.9445   22.7979    5.1890 H         1 UNK         0.0705 
     81 H81        32.8659   25.0446    4.8764 H         1 UNK         0.1334 
     82 H82        34.1183   26.1378    0.9184 H         1 UNK         0.1417 
     83 H83        31.6426   22.7111    1.4967 H         1 UNK         0.1562 
     84 H84        32.2950   23.2961   -0.7162 H         1 UNK         0.0748 
     85 H85        33.9000   23.9800   -0.7630 H         1 UNK         0.0748 
     86 H86        30.2368   24.6663   -0.4621 H         1 UNK         0.0940 
     87 H87        29.9527   25.4308   -1.9860 H         1 UNK         0.0940 
     88 H88        30.8212   27.5561   -0.2245 H         1 UNK         0.0703 
     89 H89        28.3010   26.9403   -1.5991 H         1 UNK         0.3081 
     90 H90        26.9388   30.1413   -1.0898 H         1 UNK         0.0719 
     91 H91        28.5434   30.7946   -2.8895 H         1 UNK         0.0809 
     92 H92        28.2591   29.2714   -3.7199 H         1 UNK         0.0809 
     93 H93        26.9562   30.4504   -3.5557 H         1 UNK         0.0809 
     94 H94        26.3012   27.9985   -2.9077 H         1 UNK         0.2990 
     95 H95        23.7714   26.7455   -0.9056 H         1 UNK         0.0690 
     96 H96        23.5633   25.9302   -3.2084 H         1 UNK         0.0788 
     97 H97        25.1860   26.4626   -3.6181 H         1 UNK         0.0788 
     98 H98        23.9312   27.6429   -3.2466 H         1 UNK         0.0788 
     99 H99        24.6327   24.7495   -0.4942 H         1 UNK         0.2993 
    100 H100       25.7722   22.7769   -1.0046 H         1 UNK         0.0949 
    101 H101       27.5241   22.5653   -2.7976 H         1 UNK         0.0767 
    102 H102       28.7513   23.1322   -1.6736 H         1 UNK         0.0767 
    103 H103       27.9251   21.6042   -1.3833 H         1 UNK         0.0767 
    104 H104       27.5420   24.3719    0.7058 H         1 UNK         0.3013 
    105 H105       30.6667   27.9842    1.9266 H         1 UNK         0.3121 
    106 H106       29.5407   26.0827    3.7406 H         1 UNK         0.0774 
    107 H107       27.4295   27.3752    3.1378 H         1 UNK         0.0815 
    108 H108       27.9032   27.6532    4.8025 H         1 UNK         0.0815 
    109 H109       28.2323   28.8725    3.5772 H         1 UNK         0.0815 
    110 H110       30.3568   26.4772    5.8416 H         1 UNK         0.2987 
    111 H111       32.7934   27.9399    6.0586 H         1 UNK         0.0949 
    112 H112       32.3163   25.9272    7.4231 H         1 UNK         0.0806 
    113 H113       32.6528   27.2975    8.4668 H         1 UNK         0.0806 
    114 H114       30.9946   26.7576    8.2438 H         1 UNK         0.0806 
    115 H115       29.4719   28.6968    7.0853 H         1 UNK         0.3010 
    116 H116       30.0200   31.1643    8.4070 H         1 UNK         0.0829 
    117 H117       27.9191   29.8813    8.7509 H         1 UNK         0.0813 
    118 H118       27.5509   31.5021    8.1881 H         1 UNK         0.0813 
    119 H119       27.4489   30.1485    7.0711 H         1 UNK         0.0813 
    120 H120       29.7409   30.3752    5.0036 H         1 UNK         0.3038 
    121 H121       29.4937   33.1861    4.1321 H         1 UNK         0.0769 
    122 H122       29.4060   32.1782    1.8720 H         1 UNK         0.0811 
    123 H123       28.2420   31.3840    2.9169 H         1 UNK         0.0811 
    124 H124       29.7666   30.5897    2.5181 H         1 UNK         0.0811 
    125 H125       31.9860   31.2121    5.2223 H         1 UNK         0.3204 
    126 H126       34.1711   31.1002    5.1161 H         1 UNK         0.0748 
    127 H127       35.5317   33.0757    4.5830 H         1 UNK         0.0771 
    128 H128       34.1842   33.8511    3.7671 H         1 UNK         0.0771 
    129 H129       34.1254   33.5750    5.5079 H         1 UNK         0.0771 
    130 H130       32.7490   29.7326    3.2234 H         1 UNK         0.2980 
    131 H131       33.0170   28.3565    1.5654 H         1 UNK         0.0545 
    132 H132       32.8906   29.6024   -1.8319 H         1 UNK         0.3459 
    133 H133       33.4618   28.1875   -0.9925 H         1 UNK         0.3459 
    134 H134       35.2266   27.9884    0.3927 H         1 UNK         0.0616 
    135 H135       35.8748   29.3896    1.1533 H         1 UNK         0.0616 
    136 H136       34.7263   26.5853    4.5696 H         1 UNK         0.0634 
    137 H137       33.6489   27.7121    3.8218 H         1 UNK         0.0634 
@<TRIPOS>BOND
     1    1    2 1    
     2    1   72 1    
     3    1   73 1    
     4    1   74 1    
     5    2    3 2    
     6    2    4 am   BACKBONE|DICT|INTERRES
     7    4    5 1    
     8    4   75 1    
     9    5    6 1    
    10    5   35 1    
    11    5   76 1    
    12    6    7 1    
    13    6   77 1    
    14    6   78 1    
    15    7    8 1    
    16    8    9 1    
    17    8   79 1    
    18    8   80 1    
    19    9   10 ar   
    20    9   14 ar   
    21   10   11 ar   
    22   10   81 1    
    23   11   12 ar   
    24   11   71 1    
    25   12   13 ar   
    26   12   82 1    
    27   13   14 ar   
    28   13   15 1    
    29   14   83 1    
    30   15   16 1    
    31   15   84 1    
    32   15   85 1    
    33   16   17 1    
    34   17   18 1    
    35   17   86 1    
    36   17   87 1    
    37   18   19 1    
    38   18   37 1    
    39   18   88 1    
    40   19   20 am   BACKBONE|DICT|INTERRES
    41   19   89 1    
    42   20   21 2    
    43   20   22 1    
    44   22   23 1    
    45   22   24 1    
    46   22   90 1    
    47   23   91 1    
    48   23   92 1    
    49   23   93 1    
    50   24   25 am   BACKBONE|DICT|INTERRES
    51   24   94 1    
    52   25   26 2    
    53   25   27 1    
    54   27   28 1    
    55   27   29 1    
    56   27   95 1    
    57   28   96 1    
    58   28   97 1    
    59   28   98 1    
    60   29   30 am   BACKBONE|DICT|INTERRES
    61   29   99 1    
    62   30   31 2    
    63   30   32 1    
    64   32   33 1    
    65   32   34 1    
    66   32  100 1    
    67   33  101 1    
    68   33  102 1    
    69   33  103 1    
    70   34   35 am   BACKBONE|DICT|INTERRES
    71   34  104 1    
    72   35   36 2    
    73   37   38 2    
    74   37   39 am   BACKBONE|DICT|INTERRES
    75   39   40 1    
    76   39  105 1    
    77   40   41 1    
    78   40   42 1    
    79   40  106 1    
    80   41  107 1    
    81   41  108 1    
    82   41  109 1    
    83   42   43 2    
    84   42   44 am   BACKBONE|DICT|INTERRES
    85   44   45 1    
    86   44  110 1    
    87   45   46 1    
    88   45   47 1    
    89   45  111 1    
    90   46  112 1    
    91   46  113 1    
    92   46  114 1    
    93   47   48 2    
    94   47   49 am   BACKBONE|DICT|INTERRES
    95   49   50 1    
    96   49  115 1    
    97   50   51 1    
    98   50   52 1    
    99   50  116 1    
   100   51  117 1    
   101   51  118 1    
   102   51  119 1    
   103   52   53 2    
   104   52   54 am   BACKBONE|DICT|INTERRES
   105   54   55 1    
   106   54  120 1    
   107   55   56 1    
   108   55   57 1    
   109   55  121 1    
   110   56  122 1    
   111   56  123 1    
   112   56  124 1    
   113   57   58 2    
   114   57   59 am   BACKBONE|DICT|INTERRES
   115   59   60 1    
   116   59  125 1    
   117   60   61 1    
   118   60   62 1    
   119   60  126 1    
   120   61  127 1    
   121   61  128 1    
   122   61  129 1    
   123   62   63 2    
   124   62   64 am   BACKBONE|DICT|INTERRES
   125   64   65 1    
   126   64  130 1    
   127   65   66 1    
   128   65   69 1    
   129   65  131 1    
   130   66   67 am   BACKBONE|DICT|INTERRES
   131   66   68 2    
   132   67  132 1    
   133   67  133 1    
   134   69   70 1    
   135   69  134 1    
   136   69  135 1    
   137   70   71 1    
   138   71  136 1    
   139   71  137 1    
@<TRIPOS>SUBSTRUCTURE
     1 UNK         1 GROUP             0       ****    0 ROOT    
