@<TRIPOS>MOLECULE
3R136
137   139    1
SMALL
USER_CHARGES


@<TRIPOS>ATOM
      1 CA         26.1141   22.6676   -3.9174 C.3       0 UNK        -0.1979 
      2 C          27.1177   23.2685   -2.9454 C.2       0 UNK         0.4864 
      3 O          27.4520   24.4489   -3.0606 O.2       0 UNK        -0.5359 
      4 N          27.5863   22.4770   -1.9677 N.am      1 UNK        -0.4318 
      5 CA         28.6037   22.8696   -0.9788 C.3       1 UNK         0.0824 
      6 C6         29.1961   21.6467   -0.2283 C.3       12 UNK        -0.0944 
      7 S7         31.0157   21.7403   -0.1151 S.3       12 UNK        -0.2672 
      8 C8         31.3378   21.0457    1.5340 C.3       12 UNK         0.0333 
      9 C9         31.3086   22.1064    2.6252 C.ar      12 UNK        -0.0807 
     10 C10        32.4609   22.8449    2.9128 C.ar      12 UNK        -0.0894 
     11 C11        32.4789   23.7703    3.9614 C.ar      12 UNK        -0.0804 
     12 C12        31.3222   23.9328    4.7354 C.ar      12 UNK        -0.0824 
     13 C13        30.1453   23.2428    4.4272 C.ar      12 UNK        -0.0762 
     14 C14        30.1489   22.3232    3.3743 C.ar      12 UNK        -0.0782 
     15 C15        28.8692   23.4694    5.2348 C.3       12 UNK         0.0230 
     16 S16        28.4992   25.2311    5.5565 S.3       12 UNK        -0.2608 
     17 C17        28.4744   25.9400    3.8730 C.3       12 UNK        -0.0989 
     18 CA         29.6937   26.8650    3.5969 C.3       5 UNK         0.0716 
     19 N          30.1066   26.7740    2.1953 N.am      5 UNK        -0.4135 
     20 C          31.2248   27.2762    1.6569 C.2       4 UNK         0.5031 
     21 O          32.0570   27.9370    2.2740 O.2       4 UNK        -0.5229 
     22 CA         31.4654   26.9796    0.1694 C.3       4 UNK         0.0329 
     23 CB         32.1716   25.6238    0.0006 C.3       4 UNK        -0.2001 
     24 N          30.2159   26.9929   -0.5923 N.am      4 UNK        -0.4303 
     25 C          29.6038   28.1090   -1.0141 C.2       3 UNK         0.5044 
     26 O          30.0750   29.2386   -0.8803 O.2       3 UNK        -0.5152 
     27 CA         28.2288   27.9434   -1.6904 C.3       3 UNK         0.0319 
     28 CB         28.4000   27.7183   -3.2004 C.3       3 UNK        -0.2001 
     29 N          27.4361   26.8515   -1.1201 N.am      3 UNK        -0.4354 
     30 C          26.9343   26.8423    0.1272 C.2       2 UNK         0.4964 
     31 O          26.9958   27.7986    0.8979 O.2       2 UNK        -0.5047 
     32 CA         26.2966   25.5285    0.6254 C.3       2 UNK         0.0288 
     33 CB         24.7749   25.5568    0.4142 C.3       2 UNK        -0.2113 
     34 N          26.8528   24.3281   -0.0077 N.am      2 UNK        -0.4145 
     35 C          28.1515   23.9887   -0.0126 C.2       1 UNK         0.5006 
     36 O          28.9953   24.5845    0.6556 O.2       1 UNK        -0.5103 
     37 C          29.4511   28.3076    4.1001 C.2       5 UNK         0.5055 
     38 O          29.4866   29.2742    3.3336 O.2       5 UNK        -0.5220 
     39 N          29.1759   28.4170    5.4080 N.am      6 UNK        -0.4450 
     40 CA         28.8945   29.6512    6.1548 C.3       6 UNK         0.0367 
     41 CB         28.7607   29.3081    7.6470 C.3       6 UNK        -0.1929 
     42 C          27.6669   30.4440    5.6697 C.2       6 UNK         0.5070 
     43 O          27.5405   31.6210    6.0067 O.2       6 UNK        -0.5237 
     44 N          26.8015   29.8060    4.8713 N.am      7 UNK        -0.4739 
     45 CA         25.7003   30.4428    4.1480 C.3       7 UNK         0.0276 
     46 CB         24.7790   29.3474    3.5854 C.3       7 UNK        -0.1927 
     47 C          26.1688   31.3846    3.0193 C.2       7 UNK         0.5013 
     48 O          25.3738   32.2158    2.5774 O.2       7 UNK        -0.5193 
     49 N          27.4234   31.2450    2.5687 N.am      8 UNK        -0.4253 
     50 CA         28.0201   32.0342    1.4981 C.3       8 UNK         0.0242 
     51 CB         27.7675   31.3415    0.1488 C.3       8 UNK        -0.2000 
     52 C          29.4975   32.3075    1.8170 C.2       8 UNK         0.4948 
     53 O          29.7664   33.2188    2.6008 O.2       8 UNK        -0.5275 
     54 N          30.4288   31.5680    1.1931 N.am      9 UNK        -0.4246 
     55 CA         31.8713   31.8452    1.2397 C.3       9 UNK         0.0261 
     56 CB         32.5948   30.9919    0.1873 C.3       9 UNK        -0.1959 
     57 C          32.5432   31.6723    2.6153 C.2       9 UNK         0.5033 
     58 O          33.5723   32.3098    2.8449 O.2       9 UNK        -0.5390 
     59 N          31.9716   30.8332    3.4915 N.am      10 UNK        -0.4215 
     60 CA         32.4589   30.5095    4.8398 C.3       10 UNK         0.0240 
     61 CB         32.3699   31.7375    5.7719 C.3       10 UNK        -0.1982 
     62 C          33.8405   29.8253    4.8562 C.2       10 UNK         0.4970 
     63 O          34.6698   30.1268    5.7173 O.2       10 UNK        -0.4916 
     64 N          34.0270   28.8769    3.9314 N.am      11 UNK        -0.4279 
     65 CA         35.1603   27.9469    3.8280 C.3       11 UNK         0.1003 
     66 C          36.5277   28.6535    3.5785 C.2       11 UNK         0.5709 
     67 N          37.6470   28.0499    3.9590 N.am      11 UNK        -0.7358 
     68 O          36.5931   29.7256    2.9797 O.2       11 UNK        -0.4999 
     69 C69        35.1719   26.8958    4.9810 C.3       12 UNK        -0.0954 
     70 S70        33.5550   26.0774    5.2109 S.3       12 UNK        -0.2268 
     71 C71        33.7673   24.5545    4.2261 C.3       12 UNK         0.0203 
     72 H72        25.1782   23.2246   -3.8823 H         1 UNK         0.0888 
     73 H73        26.5028   22.7184   -4.9341 H         1 UNK         0.0888 
     74 H74        25.8980   21.6243   -3.6883 H         1 UNK         0.0888 
     75 H75        27.2630   21.5212   -1.9111 H         1 UNK         0.3017 
     76 H76        29.4027   23.3219   -1.5712 H         1 UNK         0.0873 
     77 H77        28.7548   21.5270    0.7627 H         1 UNK         0.0745 
     78 H78        28.9718   20.7201   -0.7590 H         1 UNK         0.0745 
     79 H79        30.6250   20.2480    1.7489 H         1 UNK         0.0705 
     80 H80        32.3198   20.5704    1.5208 H         1 UNK         0.0705 
     81 H81        33.3531   22.6885    2.3216 H         1 UNK         0.1334 
     82 H82        31.3164   24.6174    5.5708 H         1 UNK         0.1417 
     83 H83        29.2526   21.7631    3.1466 H         1 UNK         0.1562 
     84 H84        28.9627   22.9507    6.1897 H         1 UNK         0.0748 
     85 H85        28.0103   23.0277    4.7269 H         1 UNK         0.0748 
     86 H86        27.5293   26.4628    3.7128 H         1 UNK         0.0940 
     87 H87        28.4605   25.1066    3.1701 H         1 UNK         0.0940 
     88 H88        30.5507   26.4981    4.1628 H         1 UNK         0.0703 
     89 H89        29.5337   26.1842    1.6013 H         1 UNK         0.3081 
     90 H90        32.1279   27.7489   -0.2303 H         1 UNK         0.0719 
     91 H91        32.3575   25.3983   -1.0493 H         1 UNK         0.0809 
     92 H92        31.5912   24.8028    0.4228 H         1 UNK         0.0809 
     93 H93        33.1369   25.6259    0.5087 H         1 UNK         0.0809 
     94 H94        29.7360   26.1078   -0.6851 H         1 UNK         0.2990 
     95 H95        27.6686   28.8693   -1.5537 H         1 UNK         0.0690 
     96 H96        27.4353   27.6553   -3.7042 H         1 UNK         0.0788 
     97 H97        28.9483   26.7995   -3.4126 H         1 UNK         0.0788 
     98 H98        28.9517   28.5412   -3.6571 H         1 UNK         0.0788 
     99 H99        27.3332   26.0227   -1.6980 H         1 UNK         0.2993 
    100 H100       26.4912   25.4556    1.6962 H         1 UNK         0.0949 
    101 H101       24.5148   25.6023   -0.6443 H         1 UNK         0.0767 
    102 H102       24.2978   24.6744    0.8413 H         1 UNK         0.0767 
    103 H103       24.3309   26.4287    0.8973 H         1 UNK         0.0767 
    104 H104       26.2258   23.7912   -0.5885 H         1 UNK         0.3013 
    105 H105       29.1301   27.5579    5.9417 H         1 UNK         0.3121 
    106 H106       29.7490   30.3163    6.0368 H         1 UNK         0.0774 
    107 H107       28.5792   30.2053    8.2406 H         1 UNK         0.0815 
    108 H108       27.9318   28.6232    7.8302 H         1 UNK         0.0815 
    109 H109       29.6706   28.8478    8.0325 H         1 UNK         0.0815 
    110 H110       26.9833   28.8371    4.6568 H         1 UNK         0.2987 
    111 H111       25.1291   31.0452    4.8579 H         1 UNK         0.0949 
    112 H112       25.3015   28.7083    2.8724 H         1 UNK         0.0806 
    113 H113       24.3820   28.7140    4.3788 H         1 UNK         0.0806 
    114 H114       23.9260   29.7845    3.0645 H         1 UNK         0.0806 
    115 H115       28.0290   30.5426    2.9863 H         1 UNK         0.3010 
    116 H116       27.5437   33.0164    1.4594 H         1 UNK         0.0829 
    117 H117       26.7177   31.4143   -0.1358 H         1 UNK         0.0813 
    118 H118       28.3536   31.7856   -0.6570 H         1 UNK         0.0813 
    119 H119       28.0113   30.2838    0.2117 H         1 UNK         0.0813 
    120 H120       30.1341   30.8150    0.5791 H         1 UNK         0.3038 
    121 H121       32.0007   32.8925    0.9585 H         1 UNK         0.0769 
    122 H122       32.1868   31.1543   -0.8104 H         1 UNK         0.0811 
    123 H123       32.5150   29.9305    0.4160 H         1 UNK         0.0811 
    124 H124       33.6573   31.2359    0.1481 H         1 UNK         0.0811 
    125 H125       31.1380   30.3301    3.1942 H         1 UNK         0.3204 
    126 H126       31.7788   29.7544    5.2294 H         1 UNK         0.0748 
    127 H127       31.3769   32.1863    5.7448 H         1 UNK         0.0771 
    128 H128       32.5721   31.4580    6.8066 H         1 UNK         0.0771 
    129 H129       33.0914   32.5072    5.4965 H         1 UNK         0.0771 
    130 H130       33.2683   28.6833    3.2774 H         1 UNK         0.2980 
    131 H131       34.9740   27.3977    2.9047 H         1 UNK         0.0545 
    132 H132       38.5304   28.4989    3.7746 H         1 UNK         0.3459 
    133 H133       37.6257   27.1618    4.4341 H         1 UNK         0.3459 
    134 H134       35.4422   27.3736    5.9241 H         1 UNK         0.0616 
    135 H135       35.9233   26.1258    4.8007 H         1 UNK         0.0616 
    136 H136       34.4808   23.9034    4.7325 H         1 UNK         0.0634 
    137 H137       34.2143   24.8313    3.2698 H         1 UNK         0.0634 
@<TRIPOS>BOND
     1    1    2 1    
     2    1   72 1    
     3    1   73 1    
     4    1   74 1    
     5    2    3 2    
     6    2    4 am   BACKBONE|DICT|INTERRES
     7    4    5 1    
     8    4   75 1    
     9    5    6 1    
    10    5   35 1    
    11    5   76 1    
    12    6    7 1    
    13    6   77 1    
    14    6   78 1    
    15    7    8 1    
    16    8    9 1    
    17    8   79 1    
    18    8   80 1    
    19    9   10 ar   
    20    9   14 ar   
    21   10   11 ar   
    22   10   81 1    
    23   11   12 ar   
    24   11   71 1    
    25   12   13 ar   
    26   12   82 1    
    27   13   14 ar   
    28   13   15 1    
    29   14   83 1    
    30   15   16 1    
    31   15   84 1    
    32   15   85 1    
    33   16   17 1    
    34   17   18 1    
    35   17   86 1    
    36   17   87 1    
    37   18   19 1    
    38   18   37 1    
    39   18   88 1    
    40   19   20 am   BACKBONE|DICT|INTERRES
    41   19   89 1    
    42   20   21 2    
    43   20   22 1    
    44   22   23 1    
    45   22   24 1    
    46   22   90 1    
    47   23   91 1    
    48   23   92 1    
    49   23   93 1    
    50   24   25 am   BACKBONE|DICT|INTERRES
    51   24   94 1    
    52   25   26 2    
    53   25   27 1    
    54   27   28 1    
    55   27   29 1    
    56   27   95 1    
    57   28   96 1    
    58   28   97 1    
    59   28   98 1    
    60   29   30 am   BACKBONE|DICT|INTERRES
    61   29   99 1    
    62   30   31 2    
    63   30   32 1    
    64   32   33 1    
    65   32   34 1    
    66   32  100 1    
    67   33  101 1    
    68   33  102 1    
    69   33  103 1    
    70   34   35 am   BACKBONE|DICT|INTERRES
    71   34  104 1    
    72   35   36 2    
    73   37   38 2    
    74   37   39 am   BACKBONE|DICT|INTERRES
    75   39   40 1    
    76   39  105 1    
    77   40   41 1    
    78   40   42 1    
    79   40  106 1    
    80   41  107 1    
    81   41  108 1    
    82   41  109 1    
    83   42   43 2    
    84   42   44 am   BACKBONE|DICT|INTERRES
    85   44   45 1    
    86   44  110 1    
    87   45   46 1    
    88   45   47 1    
    89   45  111 1    
    90   46  112 1    
    91   46  113 1    
    92   46  114 1    
    93   47   48 2    
    94   47   49 am   BACKBONE|DICT|INTERRES
    95   49   50 1    
    96   49  115 1    
    97   50   51 1    
    98   50   52 1    
    99   50  116 1    
   100   51  117 1    
   101   51  118 1    
   102   51  119 1    
   103   52   53 2    
   104   52   54 am   BACKBONE|DICT|INTERRES
   105   54   55 1    
   106   54  120 1    
   107   55   56 1    
   108   55   57 1    
   109   55  121 1    
   110   56  122 1    
   111   56  123 1    
   112   56  124 1    
   113   57   58 2    
   114   57   59 am   BACKBONE|DICT|INTERRES
   115   59   60 1    
   116   59  125 1    
   117   60   61 1    
   118   60   62 1    
   119   60  126 1    
   120   61  127 1    
   121   61  128 1    
   122   61  129 1    
   123   62   63 2    
   124   62   64 am   BACKBONE|DICT|INTERRES
   125   64   65 1    
   126   64  130 1    
   127   65   66 1    
   128   65   69 1    
   129   65  131 1    
   130   66   67 am   BACKBONE|DICT|INTERRES
   131   66   68 2    
   132   67  132 1    
   133   67  133 1    
   134   69   70 1    
   135   69  134 1    
   136   69  135 1    
   137   70   71 1    
   138   71  136 1    
   139   71  137 1    
@<TRIPOS>SUBSTRUCTURE
     1 UNK         1 GROUP             0       ****    0 ROOT    
