@<TRIPOS>MOLECULE
3R136
137   139    1
SMALL
USER_CHARGES


@<TRIPOS>ATOM
      1 CA         31.8983   19.7406   -2.9137 C.3       0 UNK        -0.1979 
      2 C          31.3089   21.1368   -3.0487 C.2       0 UNK         0.4864 
      3 O          30.8050   21.4877   -4.1162 O.2       0 UNK        -0.5359 
      4 N          31.3646   21.9344   -1.9735 N.am      1 UNK        -0.4318 
      5 CA         30.8468   23.3084   -1.9150 C.3       1 UNK         0.0824 
      6 C6         31.5668   24.1374   -0.8231 C.3       12 UNK        -0.0944 
      7 S7         31.3736   23.4780    0.8703 S.3       12 UNK        -0.2672 
      8 C8         30.3269   24.7764    1.5888 C.3       12 UNK         0.0333 
      9 C9         30.0471   24.5420    3.0629 C.ar      12 UNK        -0.0807 
     10 C10        31.0615   24.7037    4.0094 C.ar      12 UNK        -0.0894 
     11 C11        30.7871   24.5624    5.3733 C.ar      12 UNK        -0.0804 
     12 C12        29.4833   24.2738    5.7888 C.ar      12 UNK        -0.0824 
     13 C13        28.4581   24.1193    4.8504 C.ar      12 UNK        -0.0762 
     14 C14        28.7562   24.2245    3.4879 C.ar      12 UNK        -0.0782 
     15 C15        27.0272   23.8645    5.3097 C.3       12 UNK         0.0230 
     16 S16        25.8146   24.9518    4.4832 S.3       12 UNK        -0.2608 
     17 C17        26.2741   26.6113    5.0995 C.3       12 UNK        -0.0989 
     18 CA         27.3481   27.3413    4.2445 C.3       5 UNK         0.0716 
     19 N          27.0614   27.2991    2.8109 N.am      5 UNK        -0.4135 
     20 C          27.9203   27.6051    1.8324 C.2       4 UNK         0.5031 
     21 O          29.0689   27.9945    2.0491 O.2       4 UNK        -0.5229 
     22 CA         27.4236   27.4450    0.3747 C.3       4 UNK         0.0329 
     23 CB         28.5725   27.5256   -0.6488 C.3       4 UNK        -0.2001 
     24 N          26.6635   26.2115    0.1205 N.am      4 UNK        -0.4303 
     25 C          25.4180   25.9524    0.5459 C.2       3 UNK         0.5044 
     26 O          24.7788   26.7333    1.2526 O.2       3 UNK        -0.5152 
     27 CA         24.7514   24.6270    0.1273 C.3       3 UNK         0.0319 
     28 CB         23.4017   24.8897   -0.5641 C.3       3 UNK        -0.2001 
     29 N          25.5630   23.7804   -0.7506 N.am      3 UNK        -0.4354 
     30 C          26.5534   22.9716   -0.3542 C.2       2 UNK         0.4964 
     31 O          26.9535   22.9029    0.8070 O.2       2 UNK        -0.5047 
     32 CA         27.1971   22.0658   -1.4225 C.3       2 UNK         0.0288 
     33 CB         26.5564   22.1755   -2.8267 C.3       2 UNK        -0.2113 
     34 N          28.6481   22.2543   -1.5087 N.am      2 UNK        -0.4145 
     35 C          29.3053   23.3886   -1.7993 C.2       1 UNK         0.5006 
     36 O          28.7463   24.4712   -1.9865 O.2       1 UNK        -0.5103 
     37 C          27.5253   28.8015    4.6989 C.2       5 UNK         0.5055 
     38 O          26.5515   29.5579    4.6853 O.2       5 UNK        -0.5220 
     39 N          28.7609   29.1658    5.0712 N.am      6 UNK        -0.4450 
     40 CA         29.1967   30.5031    5.4970 C.3       6 UNK         0.0367 
     41 CB         28.5117   30.9161    6.8176 C.3       6 UNK        -0.1929 
     42 C          29.0698   31.5758    4.3946 C.2       6 UNK         0.5070 
     43 O          28.9139   32.7584    4.7082 O.2       6 UNK        -0.5237 
     44 N          29.1462   31.1644    3.1205 N.am      7 UNK        -0.4739 
     45 CA         29.1097   32.0550    1.9609 C.3       7 UNK         0.0276 
     46 CB         28.6264   31.2736    0.7279 C.3       7 UNK        -0.1927 
     47 C          30.4840   32.7132    1.7484 C.2       7 UNK         0.5013 
     48 O          31.2645   32.2654    0.9038 O.2       7 UNK        -0.5193 
     49 N          30.7527   33.7570    2.5454 N.am      8 UNK        -0.4253 
     50 CA         31.9725   34.5691    2.5725 C.3       8 UNK         0.0242 
     51 CB         32.1039   35.4087    1.2804 C.3       8 UNK        -0.2000 
     52 C          33.2104   33.7132    2.8942 C.2       8 UNK         0.4948 
     53 O          33.4107   33.3670    4.0588 O.2       8 UNK        -0.5275 
     54 N          34.0116   33.3904    1.8702 N.am      9 UNK        -0.4246 
     55 CA         35.1974   32.5399    1.9764 C.3       9 UNK         0.0261 
     56 CB         36.0527   32.7003    0.7092 C.3       9 UNK        -0.1959 
     57 C          34.8652   31.0568    2.2163 C.2       9 UNK         0.5033 
     58 O          35.6681   30.3611    2.8426 O.2       9 UNK        -0.5390 
     59 N          33.7068   30.5873    1.7277 N.am      10 UNK        -0.4215 
     60 CA         33.2409   29.2150    1.9322 C.3       10 UNK         0.0240 
     61 CB         32.0738   28.9146    0.9821 C.3       10 UNK        -0.1982 
     62 C          32.8318   29.0206    3.3988 C.2       10 UNK         0.4970 
     63 O          32.0005   29.7801    3.8967 O.2       10 UNK        -0.4916 
     64 N          33.4491   28.0355    4.0621 N.am      11 UNK        -0.4279 
     65 CA         33.3645   27.8075    5.5149 C.3       11 UNK         0.1003 
     66 C          34.1252   28.8677    6.3739 C.2       11 UNK         0.5709 
     67 N          34.9741   29.7110    5.7952 N.am      11 UNK        -0.7358 
     68 O          33.9742   28.9109    7.5923 O.2       11 UNK        -0.4999 
     69 C69        31.9039   27.5461    5.9944 C.3       12 UNK        -0.0954 
     70 S70        31.7732   26.2989    7.3186 S.3       12 UNK        -0.2268 
     71 C71        31.9004   24.7324    6.3965 C.3       12 UNK         0.0203 
     72 H72        32.3063   19.5644   -1.9185 H         1 UNK         0.0888 
     73 H73        31.1321   18.9895   -3.1041 H         1 UNK         0.0888 
     74 H74        32.7003   19.6008   -3.6380 H         1 UNK         0.0888 
     75 H75        31.7915   21.5992   -1.1204 H         1 UNK         0.3017 
     76 H76        31.0862   23.7815   -2.8702 H         1 UNK         0.0873 
     77 H77        32.6354   24.1681   -1.0416 H         1 UNK         0.0745 
     78 H78        31.2409   25.1785   -0.8619 H         1 UNK         0.0745 
     79 H79        29.3933   24.8288    1.0265 H         1 UNK         0.0705 
     80 H80        30.8144   25.7447    1.4735 H         1 UNK         0.0705 
     81 H81        32.0617   24.9519    3.6815 H         1 UNK         0.1334 
     82 H82        29.2685   24.1868    6.8454 H         1 UNK         0.1417 
     83 H83        27.9652   24.1125    2.7603 H         1 UNK         0.1562 
     84 H84        26.9342   23.9879    6.3898 H         1 UNK         0.0748 
     85 H85        26.7717   22.8265    5.0929 H         1 UNK         0.0748 
     86 H86        26.6096   26.5263    6.1348 H         1 UNK         0.0940 
     87 H87        25.3530   27.1970    5.1323 H         1 UNK         0.0940 
     88 H88        28.2985   26.8283    4.3968 H         1 UNK         0.0703 
     89 H89        26.1184   27.0317    2.5437 H         1 UNK         0.3081 
     90 H90        26.7582   28.2896    0.1850 H         1 UNK         0.0719 
     91 H91        29.3001   26.7287   -0.5002 H         1 UNK         0.0809 
     92 H92        28.2014   27.4508   -1.6710 H         1 UNK         0.0809 
     93 H93        29.1117   28.4686   -0.5737 H         1 UNK         0.0809 
     94 H94        27.1250   25.5120   -0.4465 H         1 UNK         0.2990 
     95 H95        24.5539   24.0744    1.0486 H         1 UNK         0.0690 
     96 H96        22.8913   23.9573   -0.8067 H         1 UNK         0.0788 
     97 H97        23.5253   25.4565   -1.4877 H         1 UNK         0.0788 
     98 H98        22.7322   25.4606    0.0811 H         1 UNK         0.0788 
     99 H99        25.3240   23.7899   -1.7320 H         1 UNK         0.2993 
    100 H100       27.0424   21.0439   -1.0727 H         1 UNK         0.0949 
    101 H101       26.6627   23.1734   -3.2542 H         1 UNK         0.0767 
    102 H102       27.0215   21.4744   -3.5202 H         1 UNK         0.0767 
    103 H103       25.4933   21.9320   -2.7995 H         1 UNK         0.0767 
    104 H104       29.2069   21.4337   -1.3246 H         1 UNK         0.3013 
    105 H105       29.5019   28.4857    4.9743 H         1 UNK         0.3121 
    106 H106       30.2632   30.4259    5.7063 H         1 UNK         0.0774 
    107 H107       28.9502   31.8325    7.2145 H         1 UNK         0.0815 
    108 H108       27.4458   31.1009    6.6823 H         1 UNK         0.0815 
    109 H109       28.6266   30.1476    7.5818 H         1 UNK         0.0815 
    110 H110       29.3260   30.1840    2.9388 H         1 UNK         0.2987 
    111 H111       28.3815   32.8487    2.1438 H         1 UNK         0.0949 
    112 H112       28.5587   31.9262   -0.1432 H         1 UNK         0.0806 
    113 H113       29.3051   30.4636    0.4719 H         1 UNK         0.0806 
    114 H114       27.6379   30.8443    0.8917 H         1 UNK         0.0806 
    115 H115       30.0801   33.9518    3.2788 H         1 UNK         0.3010 
    116 H116       31.8611   35.2668    3.4042 H         1 UNK         0.0829 
    117 H117       31.2614   36.0925    1.1757 H         1 UNK         0.0813 
    118 H118       33.0078   36.0192    1.2987 H         1 UNK         0.0813 
    119 H119       32.1364   34.7942    0.3802 H         1 UNK         0.0813 
    120 H120       33.7489   33.6990    0.9451 H         1 UNK         0.3038 
    121 H121       35.7860   32.8847    2.8295 H         1 UNK         0.0769 
    122 H122       36.9591   32.0963    0.7723 H         1 UNK         0.0811 
    123 H123       36.3648   33.7353    0.5686 H         1 UNK         0.0811 
    124 H124       35.5137   32.3860   -0.1856 H         1 UNK         0.0811 
    125 H125       33.0468   31.2340    1.3068 H         1 UNK         0.3204 
    126 H126       34.0597   28.5350    1.6872 H         1 UNK         0.0748 
    127 H127       31.7604   27.8743    1.0658 H         1 UNK         0.0771 
    128 H128       31.2076   29.5307    1.2162 H         1 UNK         0.0771 
    129 H129       32.3443   29.0931   -0.0585 H         1 UNK         0.0771 
    130 H130       34.1367   27.4785    3.5759 H         1 UNK         0.2980 
    131 H131       33.9319   26.8888    5.6629 H         1 UNK         0.0545 
    132 H132       35.1216   29.7101    4.7935 H         1 UNK         0.3459 
    133 H133       35.4618   30.3796    6.3693 H         1 UNK         0.3459 
    134 H134       31.2753   27.2245    5.1647 H         1 UNK         0.0616 
    135 H135       31.4474   28.4684    6.3550 H         1 UNK         0.0616 
    136 H136       31.8642   23.9051    7.1066 H         1 UNK         0.0634 
    137 H137       32.8784   24.6766    5.9165 H         1 UNK         0.0634 
@<TRIPOS>BOND
     1    1    2 1    
     2    1   72 1    
     3    1   73 1    
     4    1   74 1    
     5    2    3 2    
     6    2    4 am   BACKBONE|DICT|INTERRES
     7    4    5 1    
     8    4   75 1    
     9    5    6 1    
    10    5   35 1    
    11    5   76 1    
    12    6    7 1    
    13    6   77 1    
    14    6   78 1    
    15    7    8 1    
    16    8    9 1    
    17    8   79 1    
    18    8   80 1    
    19    9   10 ar   
    20    9   14 ar   
    21   10   11 ar   
    22   10   81 1    
    23   11   12 ar   
    24   11   71 1    
    25   12   13 ar   
    26   12   82 1    
    27   13   14 ar   
    28   13   15 1    
    29   14   83 1    
    30   15   16 1    
    31   15   84 1    
    32   15   85 1    
    33   16   17 1    
    34   17   18 1    
    35   17   86 1    
    36   17   87 1    
    37   18   19 1    
    38   18   37 1    
    39   18   88 1    
    40   19   20 am   BACKBONE|DICT|INTERRES
    41   19   89 1    
    42   20   21 2    
    43   20   22 1    
    44   22   23 1    
    45   22   24 1    
    46   22   90 1    
    47   23   91 1    
    48   23   92 1    
    49   23   93 1    
    50   24   25 am   BACKBONE|DICT|INTERRES
    51   24   94 1    
    52   25   26 2    
    53   25   27 1    
    54   27   28 1    
    55   27   29 1    
    56   27   95 1    
    57   28   96 1    
    58   28   97 1    
    59   28   98 1    
    60   29   30 am   BACKBONE|DICT|INTERRES
    61   29   99 1    
    62   30   31 2    
    63   30   32 1    
    64   32   33 1    
    65   32   34 1    
    66   32  100 1    
    67   33  101 1    
    68   33  102 1    
    69   33  103 1    
    70   34   35 am   BACKBONE|DICT|INTERRES
    71   34  104 1    
    72   35   36 2    
    73   37   38 2    
    74   37   39 am   BACKBONE|DICT|INTERRES
    75   39   40 1    
    76   39  105 1    
    77   40   41 1    
    78   40   42 1    
    79   40  106 1    
    80   41  107 1    
    81   41  108 1    
    82   41  109 1    
    83   42   43 2    
    84   42   44 am   BACKBONE|DICT|INTERRES
    85   44   45 1    
    86   44  110 1    
    87   45   46 1    
    88   45   47 1    
    89   45  111 1    
    90   46  112 1    
    91   46  113 1    
    92   46  114 1    
    93   47   48 2    
    94   47   49 am   BACKBONE|DICT|INTERRES
    95   49   50 1    
    96   49  115 1    
    97   50   51 1    
    98   50   52 1    
    99   50  116 1    
   100   51  117 1    
   101   51  118 1    
   102   51  119 1    
   103   52   53 2    
   104   52   54 am   BACKBONE|DICT|INTERRES
   105   54   55 1    
   106   54  120 1    
   107   55   56 1    
   108   55   57 1    
   109   55  121 1    
   110   56  122 1    
   111   56  123 1    
   112   56  124 1    
   113   57   58 2    
   114   57   59 am   BACKBONE|DICT|INTERRES
   115   59   60 1    
   116   59  125 1    
   117   60   61 1    
   118   60   62 1    
   119   60  126 1    
   120   61  127 1    
   121   61  128 1    
   122   61  129 1    
   123   62   63 2    
   124   62   64 am   BACKBONE|DICT|INTERRES
   125   64   65 1    
   126   64  130 1    
   127   65   66 1    
   128   65   69 1    
   129   65  131 1    
   130   66   67 am   BACKBONE|DICT|INTERRES
   131   66   68 2    
   132   67  132 1    
   133   67  133 1    
   134   69   70 1    
   135   69  134 1    
   136   69  135 1    
   137   70   71 1    
   138   71  136 1    
   139   71  137 1    
@<TRIPOS>SUBSTRUCTURE
     1 UNK         1 GROUP             0       ****    0 ROOT    
