@<TRIPOS>MOLECULE
3R136
137   139    1
SMALL
USER_CHARGES


@<TRIPOS>ATOM
      1 CA         25.5732   21.6488   -0.1502 C.3       0 UNK        -0.1979 
      2 C          26.7139   22.6500   -0.0498 C.2       0 UNK         0.4864 
      3 O          26.9534   23.1903    1.0298 O.2       0 UNK        -0.5359 
      4 N          27.4168   22.8917   -1.1667 N.am      1 UNK        -0.4318 
      5 CA         28.5489   23.8179   -1.2996 C.3       1 UNK         0.0824 
      6 C6         29.7672   23.3896   -0.4395 C.3       12 UNK        -0.0944 
      7 S7         31.3447   23.9421   -1.1618 S.3       12 UNK        -0.2672 
      8 C8         32.5286   22.9954   -0.1560 C.3       12 UNK         0.0333 
      9 C9         32.5622   23.4955    1.2798 C.ar      12 UNK        -0.0807 
     10 C10        33.3267   24.6177    1.6090 C.ar      12 UNK        -0.0894 
     11 C11        33.3569   25.0949    2.9213 C.ar      12 UNK        -0.0804 
     12 C12        32.6232   24.4355    3.9106 C.ar      12 UNK        -0.0824 
     13 C13        31.8534   23.3113    3.5937 C.ar      12 UNK        -0.0762 
     14 C14        31.8313   22.8419    2.2772 C.ar      12 UNK        -0.0782 
     15 C15        31.0462   22.6040    4.6743 C.3       12 UNK         0.0230 
     16 S16        29.2610   22.9489    4.5417 S.3       12 UNK        -0.2608 
     17 C17        29.2221   24.7670    4.6941 C.3       12 UNK        -0.0989 
     18 CA         28.8470   25.4426    3.3450 C.3       5 UNK         0.0716 
     19 N          27.4516   25.1717    2.9653 N.am      5 UNK        -0.4135 
     20 C          26.3528   25.6366    3.5761 C.2       4 UNK         0.5031 
     21 O          26.3576   26.4984    4.4575 O.2       4 UNK        -0.5229 
     22 CA         25.0182   25.0128    3.1475 C.3       4 UNK         0.0329 
     23 CB         23.9182   25.1948    4.2184 C.3       4 UNK        -0.2001 
     24 N          24.5877   25.5776    1.8713 N.am      4 UNK        -0.4303 
     25 C          23.6501   25.0455    1.0801 C.2       3 UNK         0.5044 
     26 O          23.0572   23.9956    1.3317 O.2       3 UNK        -0.5152 
     27 CA         23.2980   25.7955   -0.2154 C.3       3 UNK         0.0319 
     28 CB         22.4372   27.0428    0.0703 C.3       3 UNK        -0.2001 
     29 N          24.4519   26.1043   -1.0690 N.am      3 UNK        -0.4354 
     30 C          25.4493   26.9731   -0.8530 C.2       2 UNK         0.4964 
     31 O          25.5611   27.6633    0.1615 O.2       2 UNK        -0.5047 
     32 CA         26.5130   27.0247   -1.9629 C.3       2 UNK         0.0288 
     33 CB         27.4411   28.2513   -1.8658 C.3       2 UNK        -0.2113 
     34 N          27.2700   25.7678   -2.0070 N.am      2 UNK        -0.4145 
     35 C          28.0891   25.2742   -1.0636 C.2       1 UNK         0.5006 
     36 O          28.4255   25.8833   -0.0449 O.2       1 UNK        -0.5103 
     37 C          29.1800   26.9500    3.3298 C.2       5 UNK         0.5055 
     38 O          29.4884   27.5259    4.3763 O.2       5 UNK        -0.5220 
     39 N          29.0924   27.5664    2.1460 N.am      6 UNK        -0.4450 
     40 CA         29.3216   28.9973    1.9476 C.3       6 UNK         0.0367 
     41 CB         27.9763   29.7471    1.9859 C.3       6 UNK        -0.1929 
     42 C          30.1256   29.2539    0.6660 C.2       6 UNK         0.5070 
     43 O          29.7688   30.1356   -0.1170 O.2       6 UNK        -0.5237 
     44 N          31.2156   28.4947    0.4747 N.am      7 UNK        -0.4739 
     45 CA         32.1783   28.6875   -0.6211 C.3       7 UNK         0.0276 
     46 CB         33.1926   27.5353   -0.6218 C.3       7 UNK        -0.1927 
     47 C          32.9061   30.0450   -0.5530 C.2       7 UNK         0.5013 
     48 O          33.2697   30.5990   -1.5912 O.2       7 UNK        -0.5193 
     49 N          33.0571   30.5647    0.6677 N.am      8 UNK        -0.4253 
     50 CA         33.3724   31.9481    0.9931 C.3       8 UNK         0.0242 
     51 CB         34.8902   32.1252    1.1807 C.3       8 UNK        -0.2000 
     52 C          32.5783   32.2915    2.2618 C.2       8 UNK         0.4948 
     53 O          32.0261   31.3868    2.8993 O.2       8 UNK        -0.5275 
     54 N          32.5183   33.5865    2.5977 N.am      9 UNK        -0.4246 
     55 CA         31.7839   34.1303    3.7441 C.3       9 UNK         0.0261 
     56 CB         31.8966   35.6651    3.7370 C.3       9 UNK        -0.1959 
     57 C          32.2692   33.5374    5.0799 C.2       9 UNK         0.5033 
     58 O          33.3378   33.9214    5.5604 O.2       9 UNK        -0.5390 
     59 N          31.4796   32.5982    5.6223 N.am      10 UNK        -0.4215 
     60 CA         31.7315   31.8105    6.8348 C.3       10 UNK         0.0240 
     61 CB         31.6491   32.7046    8.0916 C.3       10 UNK        -0.1982 
     62 C          33.0369   30.9915    6.7569 C.2       10 UNK         0.4970 
     63 O          33.8261   31.0063    7.7044 O.2       10 UNK        -0.4916 
     64 N          33.2489   30.3101    5.6212 N.am      11 UNK        -0.4279 
     65 CA         34.4194   29.4576    5.3640 C.3       11 UNK         0.1003 
     66 C          34.5870   28.2682    6.3559 C.2       11 UNK         0.5709 
     67 N          35.8039   27.7624    6.5099 N.am      11 UNK        -0.7358 
     68 O          33.6319   27.7806    6.9583 O.2       11 UNK        -0.4999 
     69 C69        34.4885   29.0123    3.8779 C.3       12 UNK        -0.0954 
     70 S70        33.2018   27.8266    3.3530 S.3       12 UNK        -0.2268 
     71 C71        34.1999   26.3069    3.2780 C.3       12 UNK         0.0203 
     72 H72        25.7274   20.8355    0.5582 H         1 UNK         0.0888 
     73 H73        24.6270   22.1323    0.0888 H         1 UNK         0.0888 
     74 H74        25.4923   21.2186   -1.1482 H         1 UNK         0.0888 
     75 H75        27.1591   22.4064   -2.0152 H         1 UNK         0.3017 
     76 H76        28.8470   23.7517   -2.3476 H         1 UNK         0.0873 
     77 H77        29.6824   23.7393    0.5898 H         1 UNK         0.0745 
     78 H78        29.8081   22.3009   -0.3780 H         1 UNK         0.0745 
     79 H79        32.2772   21.9342   -0.1919 H         1 UNK         0.0705 
     80 H80        33.5210   23.0881   -0.5996 H         1 UNK         0.0705 
     81 H81        33.8989   25.1176    0.8404 H         1 UNK         0.1334 
     82 H82        32.6494   24.8055    4.9268 H         1 UNK         0.1417 
     83 H83        31.2327   21.9759    2.0287 H         1 UNK         0.1562 
     84 H84        31.3932   22.8928    5.6678 H         1 UNK         0.0748 
     85 H85        31.2045   21.5273    4.5987 H         1 UNK         0.0748 
     86 H86        30.1911   25.1138    5.0542 H         1 UNK         0.0940 
     87 H87        28.5116   25.0402    5.4759 H         1 UNK         0.0940 
     88 H88        29.4701   24.9995    2.5671 H         1 UNK         0.0703 
     89 H89        27.3279   24.4815    2.2228 H         1 UNK         0.3081 
     90 H90        25.1894   23.9420    3.0166 H         1 UNK         0.0719 
     91 H91        24.2582   24.8372    5.1912 H         1 UNK         0.0809 
     92 H92        23.6392   26.2428    4.3338 H         1 UNK         0.0809 
     93 H93        23.0168   24.6346    3.9712 H         1 UNK         0.0809 
     94 H94        25.0552   26.4256    1.5576 H         1 UNK         0.2990 
     95 H95        22.6819   25.1151   -0.8058 H         1 UNK         0.0690 
     96 H96        22.1260   27.5294   -0.8540 H         1 UNK         0.0788 
     97 H97        22.9659   27.7797    0.6754 H         1 UNK         0.0788 
     98 H98        21.5316   26.7711    0.6143 H         1 UNK         0.0788 
     99 H99        24.4911   25.5642   -1.9222 H         1 UNK         0.2993 
    100 H100       25.9785   27.1043   -2.9112 H         1 UNK         0.0949 
    101 H101       27.9780   28.2743   -0.9205 H         1 UNK         0.0767 
    102 H102       28.1772   28.2613   -2.6693 H         1 UNK         0.0767 
    103 H103       26.8700   29.1780   -1.9316 H         1 UNK         0.0767 
    104 H104       27.0622   25.1722   -2.7966 H         1 UNK         0.3013 
    105 H105       28.8388   27.0215    1.3193 H         1 UNK         0.3121 
    106 H106       29.9427   29.3888    2.7564 H         1 UNK         0.0774 
    107 H107       27.3207   29.4359    1.1726 H         1 UNK         0.0815 
    108 H108       27.4511   29.5703    2.9246 H         1 UNK         0.0815 
    109 H109       28.1247   30.8237    1.8949 H         1 UNK         0.0815 
    110 H110       31.4401   27.7904    1.1642 H         1 UNK         0.2987 
    111 H111       31.6225   28.6595   -1.5609 H         1 UNK         0.0949 
    112 H112       32.6941   26.5727   -0.7279 H         1 UNK         0.0806 
    113 H113       33.8908   27.6309   -1.4544 H         1 UNK         0.0806 
    114 H114       33.7807   27.5158    0.2961 H         1 UNK         0.0806 
    115 H115       32.6700   30.0532    1.4530 H         1 UNK         0.3010 
    116 H116       33.0229   32.5975    0.1874 H         1 UNK         0.0829 
    117 H117       35.2733   31.5508    2.0227 H         1 UNK         0.0813 
    118 H118       35.1429   33.1704    1.3616 H         1 UNK         0.0813 
    119 H119       35.4357   31.8130    0.2900 H         1 UNK         0.0813 
    120 H120       33.0211   34.2554    2.0327 H         1 UNK         0.3038 
    121 H121       30.7302   33.8754    3.6116 H         1 UNK         0.0769 
    122 H122       31.4667   36.0917    2.8305 H         1 UNK         0.0811 
    123 H123       32.9338   35.9960    3.8051 H         1 UNK         0.0811 
    124 H124       31.3612   36.0986    4.5828 H         1 UNK         0.0811 
    125 H125       30.6590   32.3274    5.0972 H         1 UNK         0.3204 
    126 H126       30.9236   31.0800    6.8998 H         1 UNK         0.0748 
    127 H127       32.4526   33.4415    8.1184 H         1 UNK         0.0771 
    128 H128       30.7012   33.2409    8.1352 H         1 UNK         0.0771 
    129 H129       31.7245   32.1081    9.0017 H         1 UNK         0.0771 
    130 H130       32.5723   30.3723    4.8710 H         1 UNK         0.2980 
    131 H131       35.2809   30.1073    5.5309 H         1 UNK         0.0545 
    132 H132       35.9336   26.9866    7.1399 H         1 UNK         0.3459 
    133 H133       36.5966   28.1466    6.0201 H         1 UNK         0.3459 
    134 H134       35.4744   28.6001    3.6577 H         1 UNK         0.0616 
    135 H135       34.3982   29.8869    3.2376 H         1 UNK         0.0616 
    136 H136       34.6851   26.1400    4.2404 H         1 UNK         0.0634 
    137 H137       35.0003   26.4389    2.5482 H         1 UNK         0.0634 
@<TRIPOS>BOND
     1    1    2 1    
     2    1   72 1    
     3    1   73 1    
     4    1   74 1    
     5    2    3 2    
     6    2    4 am   BACKBONE|DICT|INTERRES
     7    4    5 1    
     8    4   75 1    
     9    5    6 1    
    10    5   35 1    
    11    5   76 1    
    12    6    7 1    
    13    6   77 1    
    14    6   78 1    
    15    7    8 1    
    16    8    9 1    
    17    8   79 1    
    18    8   80 1    
    19    9   10 ar   
    20    9   14 ar   
    21   10   11 ar   
    22   10   81 1    
    23   11   12 ar   
    24   11   71 1    
    25   12   13 ar   
    26   12   82 1    
    27   13   14 ar   
    28   13   15 1    
    29   14   83 1    
    30   15   16 1    
    31   15   84 1    
    32   15   85 1    
    33   16   17 1    
    34   17   18 1    
    35   17   86 1    
    36   17   87 1    
    37   18   19 1    
    38   18   37 1    
    39   18   88 1    
    40   19   20 am   BACKBONE|DICT|INTERRES
    41   19   89 1    
    42   20   21 2    
    43   20   22 1    
    44   22   23 1    
    45   22   24 1    
    46   22   90 1    
    47   23   91 1    
    48   23   92 1    
    49   23   93 1    
    50   24   25 am   BACKBONE|DICT|INTERRES
    51   24   94 1    
    52   25   26 2    
    53   25   27 1    
    54   27   28 1    
    55   27   29 1    
    56   27   95 1    
    57   28   96 1    
    58   28   97 1    
    59   28   98 1    
    60   29   30 am   BACKBONE|DICT|INTERRES
    61   29   99 1    
    62   30   31 2    
    63   30   32 1    
    64   32   33 1    
    65   32   34 1    
    66   32  100 1    
    67   33  101 1    
    68   33  102 1    
    69   33  103 1    
    70   34   35 am   BACKBONE|DICT|INTERRES
    71   34  104 1    
    72   35   36 2    
    73   37   38 2    
    74   37   39 am   BACKBONE|DICT|INTERRES
    75   39   40 1    
    76   39  105 1    
    77   40   41 1    
    78   40   42 1    
    79   40  106 1    
    80   41  107 1    
    81   41  108 1    
    82   41  109 1    
    83   42   43 2    
    84   42   44 am   BACKBONE|DICT|INTERRES
    85   44   45 1    
    86   44  110 1    
    87   45   46 1    
    88   45   47 1    
    89   45  111 1    
    90   46  112 1    
    91   46  113 1    
    92   46  114 1    
    93   47   48 2    
    94   47   49 am   BACKBONE|DICT|INTERRES
    95   49   50 1    
    96   49  115 1    
    97   50   51 1    
    98   50   52 1    
    99   50  116 1    
   100   51  117 1    
   101   51  118 1    
   102   51  119 1    
   103   52   53 2    
   104   52   54 am   BACKBONE|DICT|INTERRES
   105   54   55 1    
   106   54  120 1    
   107   55   56 1    
   108   55   57 1    
   109   55  121 1    
   110   56  122 1    
   111   56  123 1    
   112   56  124 1    
   113   57   58 2    
   114   57   59 am   BACKBONE|DICT|INTERRES
   115   59   60 1    
   116   59  125 1    
   117   60   61 1    
   118   60   62 1    
   119   60  126 1    
   120   61  127 1    
   121   61  128 1    
   122   61  129 1    
   123   62   63 2    
   124   62   64 am   BACKBONE|DICT|INTERRES
   125   64   65 1    
   126   64  130 1    
   127   65   66 1    
   128   65   69 1    
   129   65  131 1    
   130   66   67 am   BACKBONE|DICT|INTERRES
   131   66   68 2    
   132   67  132 1    
   133   67  133 1    
   134   69   70 1    
   135   69  134 1    
   136   69  135 1    
   137   70   71 1    
   138   71  136 1    
   139   71  137 1    
@<TRIPOS>SUBSTRUCTURE
     1 UNK         1 GROUP             0       ****    0 ROOT    
