@<TRIPOS>MOLECULE
3R136
137   139    1
SMALL
USER_CHARGES


@<TRIPOS>ATOM
      1 CA         31.6909   26.7050    0.8228 C.3       0 UNK        -0.1979 
      2 C          31.0589   27.0133   -0.5344 C.2       0 UNK         0.4864 
      3 O          31.3046   28.0970   -1.0610 O.2       0 UNK        -0.5359 
      4 N          30.2540   26.1368   -1.1511 N.am      1 UNK        -0.4318 
      5 CA         29.8492   24.7842   -0.7548 C.3       1 UNK         0.0824 
      6 C6         30.7545   23.6877   -1.3879 C.3       12 UNK        -0.0944 
      7 S7         32.5202   23.8016   -0.9355 S.3       12 UNK        -0.2672 
      8 C8         32.6940   22.4848    0.3089 C.3       12 UNK         0.0333 
      9 C9         32.0533   22.8752    1.6318 C.ar      12 UNK        -0.0807 
     10 C10        32.7632   23.6467    2.5556 C.ar      12 UNK        -0.0894 
     11 C11        32.1820   24.0128    3.7737 C.ar      12 UNK        -0.0804 
     12 C12        30.8756   23.6057    4.0639 C.ar      12 UNK        -0.0824 
     13 C13        30.1623   22.8207    3.1510 C.ar      12 UNK        -0.0762 
     14 C14        30.7582   22.4540    1.9412 C.ar      12 UNK        -0.0782 
     15 C15        28.7566   22.3378    3.4698 C.3       12 UNK         0.0230 
     16 S16        27.5002   23.3462    2.6257 S.3       12 UNK        -0.2608 
     17 C17        27.4433   24.8284    3.6792 C.3       12 UNK        -0.0989 
     18 CA         28.1015   26.0605    3.0134 C.3       5 UNK         0.0716 
     19 N          27.3091   26.5938    1.8920 N.am      5 UNK        -0.4135 
     20 C          27.6366   27.6843    1.1767 C.2       4 UNK         0.5031 
     21 O          28.7144   28.2676    1.2958 O.2       4 UNK        -0.5229 
     22 CA         26.5956   28.2346    0.1872 C.3       4 UNK         0.0329 
     23 CB         27.2274   29.1404   -0.8849 C.3       4 UNK        -0.2001 
     24 N          25.8529   27.1662   -0.4784 N.am      4 UNK        -0.4303 
     25 C          24.5181   27.0416   -0.4824 C.2       3 UNK         0.5044 
     26 O          23.7575   27.7900    0.1324 O.2       3 UNK        -0.5152 
     27 CA         23.9142   25.8959   -1.3186 C.3       3 UNK         0.0319 
     28 CB         23.3705   26.4342   -2.6521 C.3       3 UNK        -0.2001 
     29 N          24.8587   24.8112   -1.5929 N.am      3 UNK        -0.4354 
     30 C          25.3491   23.9792   -0.6657 C.2       2 UNK         0.4964 
     31 O          24.9958   23.9935    0.5127 O.2       2 UNK        -0.5047 
     32 CA         26.4335   22.9855   -1.1190 C.3       2 UNK         0.0288 
     33 CB         26.3382   22.6019   -2.6137 C.3       2 UNK        -0.2113 
     34 N          27.7872   23.4519   -0.7903 N.am      2 UNK        -0.4145 
     35 C          28.3817   24.5881   -1.1877 C.2       1 UNK         0.5006 
     36 O          27.8243   25.4492   -1.8770 O.2       1 UNK        -0.5103 
     37 C          28.3255   27.1570    4.0730 C.2       5 UNK         0.5055 
     38 O          27.3453   27.7034    4.5855 O.2       5 UNK        -0.5220 
     39 N          29.5984   27.4875    4.3339 N.am      6 UNK        -0.4450 
     40 CA         30.0989   28.6038    5.1484 C.3       6 UNK         0.0367 
     41 CB         29.6426   28.5012    6.6162 C.3       6 UNK        -0.1929 
     42 C          29.7906   29.9943    4.5626 C.2       6 UNK         0.5070 
     43 O          30.7086   30.8057    4.4399 O.2       6 UNK        -0.5237 
     44 N          28.5286   30.2424    4.1931 N.am      7 UNK        -0.4739 
     45 CA         27.9514   31.4978    3.6952 C.3       7 UNK         0.0276 
     46 CB         26.4168   31.3768    3.7584 C.3       7 UNK        -0.1927 
     47 C          28.4456   31.9524    2.3013 C.2       7 UNK         0.5013 
     48 O          27.6418   32.3869    1.4743 O.2       7 UNK        -0.5193 
     49 N          29.7600   31.8814    2.0839 N.am      8 UNK        -0.4253 
     50 CA         30.4972   32.3785    0.9252 C.3       8 UNK         0.0242 
     51 CB         30.1500   31.6003   -0.3599 C.3       8 UNK        -0.2000 
     52 C          31.9972   32.3116    1.2243 C.2       8 UNK         0.4948 
     53 O          32.6787   33.3348    1.1613 O.2       8 UNK        -0.5275 
     54 N          32.4785   31.1063    1.5576 N.am      9 UNK        -0.4246 
     55 CA         33.8926   30.8193    1.8142 C.3       9 UNK         0.0261 
     56 CB         34.1407   29.3195    1.5852 C.3       9 UNK        -0.1959 
     57 C          34.3824   31.2302    3.2152 C.2       9 UNK         0.5033 
     58 O          35.5958   31.3033    3.4131 O.2       9 UNK        -0.5390 
     59 N          33.4559   31.4465    4.1636 N.am      10 UNK        -0.4215 
     60 CA         33.6847   31.6969    5.5949 C.3       10 UNK         0.0240 
     61 CB         34.4653   33.0092    5.8249 C.3       10 UNK        -0.1982 
     62 C          34.3027   30.4872    6.3274 C.2       10 UNK         0.4970 
     63 O          34.9743   30.6628    7.3451 O.2       10 UNK        -0.4916 
     64 N          34.0558   29.2809    5.8003 N.am      11 UNK        -0.4279 
     65 CA         34.5675   27.9997    6.3066 C.3       11 UNK         0.1003 
     66 C          33.8043   27.4102    7.5298 C.2       11 UNK         0.5709 
     67 N          32.7781   28.0677    8.0557 N.am      11 UNK        -0.7358 
     68 O          34.1615   26.3426    8.0221 O.2       11 UNK        -0.4999 
     69 C69        34.7482   26.9795    5.1517 C.3       12 UNK        -0.0954 
     70 S70        33.2085   26.5376    4.2679 S.3       12 UNK        -0.2268 
     71 C71        32.9947   24.8064    4.7851 C.3       12 UNK         0.0203 
     72 H72        31.3470   25.7860    1.2855 H         1 UNK         0.0888 
     73 H73        32.7726   26.6314    0.7175 H         1 UNK         0.0888 
     74 H74        31.4738   27.5163    1.5163 H         1 UNK         0.0888 
     75 H75        29.7903   26.4380   -1.9983 H         1 UNK         0.3017 
     76 H76        29.8451   24.6836    0.3290 H         1 UNK         0.0873 
     77 H77        30.3989   22.6886   -1.1325 H         1 UNK         0.0745 
     78 H78        30.7003   23.7460   -2.4769 H         1 UNK         0.0745 
     79 H79        33.7561   22.2889    0.4633 H         1 UNK         0.0705 
     80 H80        32.2687   21.5549   -0.0717 H         1 UNK         0.0705 
     81 H81        33.7714   23.9650    2.3268 H         1 UNK         0.1334 
     82 H82        30.4240   23.8794    5.0076 H         1 UNK         0.1417 
     83 H83        30.2114   21.8378    1.2412 H         1 UNK         0.1562 
     84 H84        28.5764   22.3321    4.5459 H         1 UNK         0.0748 
     85 H85        28.6478   21.3021    3.1441 H         1 UNK         0.0748 
     86 H86        27.9238   24.5957    4.6317 H         1 UNK         0.0940 
     87 H87        26.3997   25.0374    3.9228 H         1 UNK         0.0940 
     88 H88        29.0729   25.7625    2.6135 H         1 UNK         0.0703 
     89 H89        26.4080   26.1643    1.7380 H         1 UNK         0.3081 
     90 H90        25.9208   28.8519    0.7834 H         1 UNK         0.0719 
     91 H91        27.9974   28.6162   -1.4527 H         1 UNK         0.0809 
     92 H92        26.4802   29.5093   -1.5874 H         1 UNK         0.0809 
     93 H93        27.6919   30.0118   -0.4243 H         1 UNK         0.0809 
     94 H94        26.4090   26.5033   -1.0128 H         1 UNK         0.2990 
     95 H95        23.0786   25.4819   -0.7502 H         1 UNK         0.0690 
     96 H96        22.8731   25.6506   -3.2240 H         1 UNK         0.0788 
     97 H97        24.1645   26.8523   -3.2723 H         1 UNK         0.0788 
     98 H98        22.6377   27.2249   -2.4843 H         1 UNK         0.0788 
     99 H99        25.2318   24.7537   -2.5299 H         1 UNK         0.2993 
    100 H100       26.2685   22.0769   -0.5372 H         1 UNK         0.0949 
    101 H101       26.5808   23.4326   -3.2771 H         1 UNK         0.0767 
    102 H102       27.0237   21.7876   -2.8490 H         1 UNK         0.0767 
    103 H103       25.3348   22.2568   -2.8677 H         1 UNK         0.0767 
    104 H104       28.2989   22.8406   -0.1706 H         1 UNK         0.3013 
    105 H105       30.3190   26.9842    3.8354 H         1 UNK         0.3121 
    106 H106       31.1842   28.5054    5.1464 H         1 UNK         0.0774 
    107 H107       30.0949   29.2895    7.2190 H         1 UNK         0.0815 
    108 H108       28.5622   28.5996    6.7223 H         1 UNK         0.0815 
    109 H109       29.9369   27.5477    7.0547 H         1 UNK         0.0815 
    110 H110       27.8791   29.4672    4.3039 H         1 UNK         0.2987 
    111 H111       28.2480   32.2860    4.3902 H         1 UNK         0.0949 
    112 H112       25.9336   32.3160    3.4857 H         1 UNK         0.0806 
    113 H113       26.0489   30.6081    3.0774 H         1 UNK         0.0806 
    114 H114       26.0786   31.1242    4.7635 H         1 UNK         0.0806 
    115 H115       30.3189   31.5356    2.8617 H         1 UNK         0.3010 
    116 H116       30.2352   33.4284    0.7789 H         1 UNK         0.0829 
    117 H117       29.1475   31.8442   -0.7096 H         1 UNK         0.0813 
    118 H118       30.8363   31.8495   -1.1704 H         1 UNK         0.0813 
    119 H119       30.1990   30.5211   -0.2081 H         1 UNK         0.0813 
    120 H120       31.8453   30.3191    1.5525 H         1 UNK         0.3038 
    121 H121       34.4932   31.3734    1.0894 H         1 UNK         0.0769 
    122 H122       33.5611   28.7067    2.2743 H         1 UNK         0.0811 
    123 H123       35.1920   29.0674    1.7323 H         1 UNK         0.0811 
    124 H124       33.8781   29.0246    0.5688 H         1 UNK         0.0811 
    125 H125       32.4765   31.3278    3.9195 H         1 UNK         0.3204 
    126 H126       32.6953   31.8314    6.0342 H         1 UNK         0.0748 
    127 H127       34.4804   33.2744    6.8827 H         1 UNK         0.0771 
    128 H128       35.5023   32.9297    5.4977 H         1 UNK         0.0771 
    129 H129       34.0071   33.8414    5.2904 H         1 UNK         0.0771 
    130 H130       33.4871   29.2239    4.9703 H         1 UNK         0.2980 
    131 H131       35.5710   28.1958    6.6888 H         1 UNK         0.0545 
    132 H132       32.3033   27.6778    8.8540 H         1 UNK         0.3459 
    133 H133       32.5025   28.9620    7.6880 H         1 UNK         0.3459 
    134 H134       35.2465   26.0809    5.5179 H         1 UNK         0.0616 
    135 H135       35.4323   27.3976    4.4115 H         1 UNK         0.0616 
    136 H136       32.5280   24.7844    5.7711 H         1 UNK         0.0634 
    137 H137       33.9671   24.3246    4.8934 H         1 UNK         0.0634 
@<TRIPOS>BOND
     1    1    2 1    
     2    1   72 1    
     3    1   73 1    
     4    1   74 1    
     5    2    3 2    
     6    2    4 am   BACKBONE|DICT|INTERRES
     7    4    5 1    
     8    4   75 1    
     9    5    6 1    
    10    5   35 1    
    11    5   76 1    
    12    6    7 1    
    13    6   77 1    
    14    6   78 1    
    15    7    8 1    
    16    8    9 1    
    17    8   79 1    
    18    8   80 1    
    19    9   10 ar   
    20    9   14 ar   
    21   10   11 ar   
    22   10   81 1    
    23   11   12 ar   
    24   11   71 1    
    25   12   13 ar   
    26   12   82 1    
    27   13   14 ar   
    28   13   15 1    
    29   14   83 1    
    30   15   16 1    
    31   15   84 1    
    32   15   85 1    
    33   16   17 1    
    34   17   18 1    
    35   17   86 1    
    36   17   87 1    
    37   18   19 1    
    38   18   37 1    
    39   18   88 1    
    40   19   20 am   BACKBONE|DICT|INTERRES
    41   19   89 1    
    42   20   21 2    
    43   20   22 1    
    44   22   23 1    
    45   22   24 1    
    46   22   90 1    
    47   23   91 1    
    48   23   92 1    
    49   23   93 1    
    50   24   25 am   BACKBONE|DICT|INTERRES
    51   24   94 1    
    52   25   26 2    
    53   25   27 1    
    54   27   28 1    
    55   27   29 1    
    56   27   95 1    
    57   28   96 1    
    58   28   97 1    
    59   28   98 1    
    60   29   30 am   BACKBONE|DICT|INTERRES
    61   29   99 1    
    62   30   31 2    
    63   30   32 1    
    64   32   33 1    
    65   32   34 1    
    66   32  100 1    
    67   33  101 1    
    68   33  102 1    
    69   33  103 1    
    70   34   35 am   BACKBONE|DICT|INTERRES
    71   34  104 1    
    72   35   36 2    
    73   37   38 2    
    74   37   39 am   BACKBONE|DICT|INTERRES
    75   39   40 1    
    76   39  105 1    
    77   40   41 1    
    78   40   42 1    
    79   40  106 1    
    80   41  107 1    
    81   41  108 1    
    82   41  109 1    
    83   42   43 2    
    84   42   44 am   BACKBONE|DICT|INTERRES
    85   44   45 1    
    86   44  110 1    
    87   45   46 1    
    88   45   47 1    
    89   45  111 1    
    90   46  112 1    
    91   46  113 1    
    92   46  114 1    
    93   47   48 2    
    94   47   49 am   BACKBONE|DICT|INTERRES
    95   49   50 1    
    96   49  115 1    
    97   50   51 1    
    98   50   52 1    
    99   50  116 1    
   100   51  117 1    
   101   51  118 1    
   102   51  119 1    
   103   52   53 2    
   104   52   54 am   BACKBONE|DICT|INTERRES
   105   54   55 1    
   106   54  120 1    
   107   55   56 1    
   108   55   57 1    
   109   55  121 1    
   110   56  122 1    
   111   56  123 1    
   112   56  124 1    
   113   57   58 2    
   114   57   59 am   BACKBONE|DICT|INTERRES
   115   59   60 1    
   116   59  125 1    
   117   60   61 1    
   118   60   62 1    
   119   60  126 1    
   120   61  127 1    
   121   61  128 1    
   122   61  129 1    
   123   62   63 2    
   124   62   64 am   BACKBONE|DICT|INTERRES
   125   64   65 1    
   126   64  130 1    
   127   65   66 1    
   128   65   69 1    
   129   65  131 1    
   130   66   67 am   BACKBONE|DICT|INTERRES
   131   66   68 2    
   132   67  132 1    
   133   67  133 1    
   134   69   70 1    
   135   69  134 1    
   136   69  135 1    
   137   70   71 1    
   138   71  136 1    
   139   71  137 1    
@<TRIPOS>SUBSTRUCTURE
     1 UNK         1 GROUP             0       ****    0 ROOT    
