@<TRIPOS>MOLECULE
3R136
137   139    1
SMALL
USER_CHARGES


@<TRIPOS>ATOM
      1 CA         34.3079   25.1500    0.3349 C.3       0 UNK        -0.1979 
      2 C          32.8449   25.4276    0.6458 C.2       0 UNK         0.4864 
      3 O          32.5356   26.4152    1.3165 O.2       0 UNK        -0.5359 
      4 N          31.9440   24.5626    0.1609 N.am      1 UNK        -0.4318 
      5 CA         30.4941   24.6111    0.3845 C.3       1 UNK         0.0824 
      6 C6         29.8149   23.2203    0.1752 C.3       12 UNK        -0.0944 
      7 S7         30.7182   21.7788    0.8428 S.3       12 UNK        -0.2672 
      8 C8         30.0811   21.6548    2.5468 C.3       12 UNK         0.0333 
      9 C9         30.5808   22.7822    3.4414 C.ar      12 UNK        -0.0807 
     10 C10        31.9340   23.1343    3.4507 C.ar      12 UNK        -0.0894 
     11 C11        32.3914   24.1997    4.2283 C.ar      12 UNK        -0.0804 
     12 C12        31.4842   24.8971    5.0319 C.ar      12 UNK        -0.0824 
     13 C13        30.1336   24.5344    5.0598 C.ar      12 UNK        -0.0762 
     14 C14        29.6882   23.4752    4.2630 C.ar      12 UNK        -0.0782 
     15 C15        29.1616   25.2818    5.9606 C.3       12 UNK         0.0230 
     16 S16        28.5763   26.8275    5.2003 S.3       12 UNK        -0.2608 
     17 C17        27.3250   26.2314    4.0149 C.3       12 UNK        -0.0989 
     18 CA         27.2058   27.1338    2.7526 C.3       5 UNK         0.0716 
     19 N          26.8904   26.3897    1.5292 N.am      5 UNK        -0.4135 
     20 C          25.9022   25.5033    1.3397 C.2       4 UNK         0.5031 
     21 O          25.1171   25.1491    2.2197 O.2       4 UNK        -0.5229 
     22 CA         25.7759   24.9269   -0.0869 C.3       4 UNK         0.0329 
     23 CB         24.3942   24.2965   -0.3642 C.3       4 UNK        -0.2001 
     24 N          26.1331   25.9030   -1.1260 N.am      4 UNK        -0.4303 
     25 C          25.5290   27.0780   -1.3626 C.2       3 UNK         0.5044 
     26 O          24.5306   27.4604   -0.7547 O.2       3 UNK        -0.5152 
     27 CA         26.2041   28.0035   -2.3960 C.3       3 UNK         0.0319 
     28 CB         25.6203   29.4314   -2.3949 C.3       3 UNK        -0.2001 
     29 N          27.6653   28.0381   -2.2462 N.am      3 UNK        -0.4354 
     30 C          28.3592   28.3570   -1.1429 C.2       2 UNK         0.4964 
     31 O          27.8530   28.7665   -0.0949 O.2       2 UNK        -0.5047 
     32 CA         29.8735   28.0960   -1.2046 C.3       2 UNK         0.0288 
     33 CB         30.6832   29.3443   -0.8178 C.3       2 UNK        -0.2113 
     34 N          30.2696   26.9630   -0.3593 N.am      2 UNK        -0.4145 
     35 C          29.8372   25.7004   -0.5001 C.2       1 UNK         0.5006 
     36 O          28.9791   25.3781   -1.3256 O.2       1 UNK        -0.5103 
     37 C          26.2933   28.3664    2.9672 C.2       5 UNK         0.5055 
     38 O          26.4256   29.0385    3.9913 O.2       5 UNK        -0.5220 
     39 N          25.3936   28.6774    2.0185 N.am      6 UNK        -0.4450 
     40 CA         24.5170   29.8495    2.0952 C.3       6 UNK         0.0367 
     41 CB         23.3234   29.6841    1.1420 C.3       6 UNK        -0.1929 
     42 C          25.2519   31.1685    1.8052 C.2       6 UNK         0.5070 
     43 O          24.8308   32.2042    2.3219 O.2       6 UNK        -0.5237 
     44 N          26.3164   31.1255    0.9892 N.am      7 UNK        -0.4739 
     45 CA         27.1241   32.3022    0.6633 C.3       7 UNK         0.0276 
     46 CB         27.7626   32.1505   -0.7266 C.3       7 UNK        -0.1927 
     47 C          28.1901   32.5575    1.7357 C.2       7 UNK         0.5013 
     48 O          28.3166   33.6926    2.1971 O.2       7 UNK        -0.5193 
     49 N          28.9248   31.5059    2.1201 N.am      8 UNK        -0.4253 
     50 CA         29.9917   31.5446    3.1169 C.3       8 UNK         0.0242 
     51 CB         31.2114   32.3210    2.5737 C.3       8 UNK        -0.2000 
     52 C          30.4128   30.1166    3.4726 C.2       8 UNK         0.4948 
     53 O          30.2389   29.2053    2.6623 O.2       8 UNK        -0.5275 
     54 N          31.0353   29.9713    4.6464 N.am      9 UNK        -0.4246 
     55 CA         31.7977   28.7893    5.0353 C.3       9 UNK         0.0261 
     56 CB         31.6217   28.5490    6.5478 C.3       9 UNK        -0.1959 
     57 C          33.2611   29.0630    4.6676 C.2       9 UNK         0.5033 
     58 O          34.0140   29.5605    5.5075 O.2       9 UNK        -0.5390 
     59 N          33.6366   28.7932    3.4086 N.am      10 UNK        -0.4215 
     60 CA         34.9530   29.1437    2.8505 C.3       10 UNK         0.0240 
     61 CB         34.9520   28.8912    1.3354 C.3       10 UNK        -0.1982 
     62 C          36.1458   28.4361    3.5255 C.2       10 UNK         0.4970 
     63 O          37.2710   28.9277    3.4344 O.2       10 UNK        -0.4916 
     64 N          35.8719   27.3167    4.2028 N.am      11 UNK        -0.4279 
     65 CA         36.7948   26.5903    5.0821 C.3       11 UNK         0.1003 
     66 C          37.0227   27.2522    6.4744 C.2       11 UNK         0.5709 
     67 N          36.2923   28.2942    6.8570 N.am      11 UNK        -0.7358 
     68 O          37.8991   26.8191    7.2190 O.2       11 UNK        -0.4999 
     69 C69        36.3979   25.0927    5.1934 C.3       12 UNK        -0.0954 
     70 S70        34.6755   24.8017    5.7402 S.3       12 UNK        -0.2268 
     71 C71        33.8496   24.6244    4.1271 C.3       12 UNK         0.0203 
     72 H72        34.9136   25.2582    1.2339 H         1 UNK         0.0888 
     73 H73        34.4554   24.1411   -0.0499 H         1 UNK         0.0888 
     74 H74        34.6726   25.8560   -0.4104 H         1 UNK         0.0888 
     75 H75        32.2607   23.7767   -0.3887 H         1 UNK         0.3017 
     76 H76        30.3272   24.9051    1.4234 H         1 UNK         0.0873 
     77 H77        29.6971   23.0088   -0.8895 H         1 UNK         0.0745 
     78 H78        28.8053   23.2302    0.5891 H         1 UNK         0.0745 
     79 H79        28.9907   21.6263    2.5184 H         1 UNK         0.0705 
     80 H80        30.4053   20.7047    2.9730 H         1 UNK         0.0705 
     81 H81        32.6274   22.5979    2.8178 H         1 UNK         0.1334 
     82 H82        31.8290   25.7234    5.6357 H         1 UNK         0.1417 
     83 H83        28.6448   23.1918    4.2802 H         1 UNK         0.1562 
     84 H84        29.6554   25.5234    6.9031 H         1 UNK         0.0748 
     85 H85        28.3078   24.6535    6.2193 H         1 UNK         0.0748 
     86 H86        26.3646   26.1291    4.5238 H         1 UNK         0.0940 
     87 H87        27.6057   25.2233    3.7148 H         1 UNK         0.0940 
     88 H88        28.1941   27.5470    2.5479 H         1 UNK         0.0703 
     89 H89        27.4254   26.6776    0.7210 H         1 UNK         0.3081 
     90 H90        26.5176   24.1299   -0.1551 H         1 UNK         0.0719 
     91 H91        24.1964   23.4723    0.3222 H         1 UNK         0.0809 
     92 H92        23.5858   25.0183   -0.2431 H         1 UNK         0.0809 
     93 H93        24.3371   23.8947   -1.3757 H         1 UNK         0.0809 
     94 H94        27.0009   25.7062   -1.6169 H         1 UNK         0.2990 
     95 H95        26.0024   27.5648   -3.3743 H         1 UNK         0.0690 
     96 H96        26.1118   30.0629   -3.1347 H         1 UNK         0.0788 
     97 H97        25.7249   29.9092   -1.4224 H         1 UNK         0.0788 
     98 H98        24.5565   29.4181   -2.6349 H         1 UNK         0.0788 
     99 H99        28.1829   27.6796   -3.0372 H         1 UNK         0.2993 
    100 H100       30.1434   27.8372   -2.2306 H         1 UNK         0.0949 
    101 H101       31.7550   29.1456   -0.8353 H         1 UNK         0.0767 
    102 H102       30.4945   30.1609   -1.5153 H         1 UNK         0.0767 
    103 H103       30.4275   29.7032    0.1775 H         1 UNK         0.0767 
    104 H104       30.9842   27.1356    0.3431 H         1 UNK         0.3013 
    105 H105       25.3184   28.1055    1.1855 H         1 UNK         0.3121 
    106 H106       24.1203   29.9095    3.1112 H         1 UNK         0.0774 
    107 H107       22.5891   30.4744    1.3027 H         1 UNK         0.0815 
    108 H108       23.6289   29.7395    0.0971 H         1 UNK         0.0815 
    109 H109       22.8154   28.7320    1.2958 H         1 UNK         0.0815 
    110 H110       26.6355   30.2308    0.6297 H         1 UNK         0.2987 
    111 H111       26.4760   33.1812    0.6261 H         1 UNK         0.0949 
    112 H112       28.4385   31.2990   -0.7746 H         1 UNK         0.0806 
    113 H113       27.0058   32.0258   -1.5004 H         1 UNK         0.0806 
    114 H114       28.3431   33.0373   -0.9843 H         1 UNK         0.0806 
    115 H115       28.7558   30.5904    1.7189 H         1 UNK         0.3010 
    116 H116       29.6105   32.0320    4.0168 H         1 UNK         0.0829 
    117 H117       30.9729   33.3655    2.3749 H         1 UNK         0.0813 
    118 H118       32.0353   32.3161    3.2886 H         1 UNK         0.0813 
    119 H119       31.5833   31.8814    1.6471 H         1 UNK         0.0813 
    120 H120       31.1627   30.7859    5.2303 H         1 UNK         0.3038 
    121 H121       31.4518   27.9045    4.4960 H         1 UNK         0.0769 
    122 H122       32.2279   27.7074    6.8844 H         1 UNK         0.0811 
    123 H123       30.5851   28.3243    6.7961 H         1 UNK         0.0811 
    124 H124       31.9198   29.4169    7.1374 H         1 UNK         0.0811 
    125 H125       32.9656   28.3766    2.7723 H         1 UNK         0.3204 
    126 H126       35.0927   30.2151    3.0093 H         1 UNK         0.0748 
    127 H127       35.8842   29.2314    0.8823 H         1 UNK         0.0771 
    128 H128       34.8489   27.8320    1.1073 H         1 UNK         0.0771 
    129 H129       34.1383   29.4229    0.8416 H         1 UNK         0.0771 
    130 H130       34.9122   27.0126    4.2423 H         1 UNK         0.2980 
    131 H131       37.7743   26.6138    4.6010 H         1 UNK         0.0545 
    132 H132       36.4678   28.7056    7.7593 H         1 UNK         0.3459 
    133 H133       35.5578   28.6764    6.2689 H         1 UNK         0.3459 
    134 H134       37.0654   24.5685    5.8797 H         1 UNK         0.0616 
    135 H135       36.5497   24.6080    4.2280 H         1 UNK         0.0616 
    136 H136       34.4101   23.9061    3.5269 H         1 UNK         0.0634 
    137 H137       33.8884   25.5721    3.5922 H         1 UNK         0.0634 
@<TRIPOS>BOND
     1    1    2 1    
     2    1   72 1    
     3    1   73 1    
     4    1   74 1    
     5    2    3 2    
     6    2    4 am   BACKBONE|DICT|INTERRES
     7    4    5 1    
     8    4   75 1    
     9    5    6 1    
    10    5   35 1    
    11    5   76 1    
    12    6    7 1    
    13    6   77 1    
    14    6   78 1    
    15    7    8 1    
    16    8    9 1    
    17    8   79 1    
    18    8   80 1    
    19    9   10 ar   
    20    9   14 ar   
    21   10   11 ar   
    22   10   81 1    
    23   11   12 ar   
    24   11   71 1    
    25   12   13 ar   
    26   12   82 1    
    27   13   14 ar   
    28   13   15 1    
    29   14   83 1    
    30   15   16 1    
    31   15   84 1    
    32   15   85 1    
    33   16   17 1    
    34   17   18 1    
    35   17   86 1    
    36   17   87 1    
    37   18   19 1    
    38   18   37 1    
    39   18   88 1    
    40   19   20 am   BACKBONE|DICT|INTERRES
    41   19   89 1    
    42   20   21 2    
    43   20   22 1    
    44   22   23 1    
    45   22   24 1    
    46   22   90 1    
    47   23   91 1    
    48   23   92 1    
    49   23   93 1    
    50   24   25 am   BACKBONE|DICT|INTERRES
    51   24   94 1    
    52   25   26 2    
    53   25   27 1    
    54   27   28 1    
    55   27   29 1    
    56   27   95 1    
    57   28   96 1    
    58   28   97 1    
    59   28   98 1    
    60   29   30 am   BACKBONE|DICT|INTERRES
    61   29   99 1    
    62   30   31 2    
    63   30   32 1    
    64   32   33 1    
    65   32   34 1    
    66   32  100 1    
    67   33  101 1    
    68   33  102 1    
    69   33  103 1    
    70   34   35 am   BACKBONE|DICT|INTERRES
    71   34  104 1    
    72   35   36 2    
    73   37   38 2    
    74   37   39 am   BACKBONE|DICT|INTERRES
    75   39   40 1    
    76   39  105 1    
    77   40   41 1    
    78   40   42 1    
    79   40  106 1    
    80   41  107 1    
    81   41  108 1    
    82   41  109 1    
    83   42   43 2    
    84   42   44 am   BACKBONE|DICT|INTERRES
    85   44   45 1    
    86   44  110 1    
    87   45   46 1    
    88   45   47 1    
    89   45  111 1    
    90   46  112 1    
    91   46  113 1    
    92   46  114 1    
    93   47   48 2    
    94   47   49 am   BACKBONE|DICT|INTERRES
    95   49   50 1    
    96   49  115 1    
    97   50   51 1    
    98   50   52 1    
    99   50  116 1    
   100   51  117 1    
   101   51  118 1    
   102   51  119 1    
   103   52   53 2    
   104   52   54 am   BACKBONE|DICT|INTERRES
   105   54   55 1    
   106   54  120 1    
   107   55   56 1    
   108   55   57 1    
   109   55  121 1    
   110   56  122 1    
   111   56  123 1    
   112   56  124 1    
   113   57   58 2    
   114   57   59 am   BACKBONE|DICT|INTERRES
   115   59   60 1    
   116   59  125 1    
   117   60   61 1    
   118   60   62 1    
   119   60  126 1    
   120   61  127 1    
   121   61  128 1    
   122   61  129 1    
   123   62   63 2    
   124   62   64 am   BACKBONE|DICT|INTERRES
   125   64   65 1    
   126   64  130 1    
   127   65   66 1    
   128   65   69 1    
   129   65  131 1    
   130   66   67 am   BACKBONE|DICT|INTERRES
   131   66   68 2    
   132   67  132 1    
   133   67  133 1    
   134   69   70 1    
   135   69  134 1    
   136   69  135 1    
   137   70   71 1    
   138   71  136 1    
   139   71  137 1    
@<TRIPOS>SUBSTRUCTURE
     1 UNK         1 GROUP             0       ****    0 ROOT    
