@<TRIPOS>MOLECULE
3R136
137   139    1
SMALL
USER_CHARGES


@<TRIPOS>ATOM
      1 CA         27.8258   21.1248   -1.1215 C.3       0 UNK        -0.1979 
      2 C          28.4097   21.0233    0.2798 C.2       0 UNK         0.4864 
      3 O          27.9595   20.1911    1.0680 O.2       0 UNK        -0.5359 
      4 N          29.4007   21.8719    0.5878 N.am      1 UNK        -0.4318 
      5 CA         30.1224   21.9529    1.8685 C.3       1 UNK         0.0824 
      6 C6         30.9713   20.6916    2.2109 C.3       12 UNK        -0.0944 
      7 S7         32.0474   20.1150    0.8519 S.3       12 UNK        -0.2672 
      8 C8         33.5640   21.0943    1.1205 C.3       12 UNK         0.0333 
      9 C9         33.3404   22.5846    0.8939 C.ar      12 UNK        -0.0807 
     10 C10        33.6977   23.5126    1.8786 C.ar      12 UNK        -0.0894 
     11 C11        33.4697   24.8804    1.6894 C.ar      12 UNK        -0.0804 
     12 C12        32.8770   25.3100    0.4963 C.ar      12 UNK        -0.0824 
     13 C13        32.4935   24.3927   -0.4835 C.ar      12 UNK        -0.0762 
     14 C14        32.7537   23.0352   -0.2930 C.ar      12 UNK        -0.0782 
     15 C15        31.7825   24.8646   -1.7407 C.3       12 UNK         0.0230 
     16 S16        29.9737   24.6646   -1.6081 S.3       12 UNK        -0.2608 
     17 C17        29.5071   25.9085   -0.3532 C.3       12 UNK        -0.0989 
     18 CA         29.0642   27.2607   -0.9684 C.3       5 UNK         0.0716 
     19 N          28.1817   28.0008   -0.0652 N.am      5 UNK        -0.4135 
     20 C          27.3847   29.0132   -0.4263 C.2       4 UNK         0.5031 
     21 O          27.2238   29.3636   -1.5969 O.2       4 UNK        -0.5229 
     22 CA         26.6595   29.7699    0.7078 C.3       4 UNK         0.0329 
     23 CB         25.5997   30.7555    0.1801 C.3       4 UNK        -0.2001 
     24 N          26.0328   28.8997    1.7095 N.am      4 UNK        -0.4303 
     25 C          26.6579   28.1583    2.6343 C.2       3 UNK         0.5044 
     26 O          27.8857   28.0997    2.7359 O.2       3 UNK        -0.5152 
     27 CA         25.7721   27.3473    3.6046 C.3       3 UNK         0.0319 
     28 CB         24.3099   27.1797    3.1305 C.3       3 UNK        -0.2001 
     29 N          26.3470   26.0382    3.9361 N.am      3 UNK        -0.4354 
     30 C          26.7028   25.0736    3.0769 C.2       2 UNK         0.4964 
     31 O          26.5772   25.1430    1.8508 O.2       2 UNK        -0.5047 
     32 CA         27.2707   23.7957    3.6984 C.3       2 UNK         0.0288 
     33 CB         26.1474   22.7961    4.0302 C.3       2 UNK        -0.2113 
     34 N          28.2001   23.2061    2.7440 N.am      2 UNK        -0.4145 
     35 C          29.2201   22.3940    3.0436 C.2       1 UNK         0.5006 
     36 O          29.4651   22.0077    4.1887 O.2       1 UNK        -0.5103 
     37 C          30.2669   28.1350   -1.3798 C.2       5 UNK         0.5055 
     38 O          30.6089   28.1853   -2.5623 O.2       5 UNK        -0.5220 
     39 N          30.8659   28.8261   -0.4012 N.am      6 UNK        -0.4450 
     40 CA         31.9842   29.7519   -0.5517 C.3       6 UNK         0.0367 
     41 CB         33.2908   28.9865   -0.8613 C.3       6 UNK        -0.1929 
     42 C          32.1078   30.5683    0.7437 C.2       6 UNK         0.5070 
     43 O          31.2815   30.4142    1.6500 O.2       6 UNK        -0.5237 
     44 N          33.1486   31.4125    0.8043 N.am      7 UNK        -0.4739 
     45 CA         33.6400   32.1392    1.9847 C.3       7 UNK         0.0276 
     46 CB         34.3053   31.1464    2.9625 C.3       7 UNK        -0.1927 
     47 C          32.5783   33.0165    2.6750 C.2       7 UNK         0.5013 
     48 O          32.5223   33.0560    3.9039 O.2       7 UNK        -0.5193 
     49 N          31.7180   33.6647    1.8748 N.am      8 UNK        -0.4253 
     50 CA         30.5743   34.4845    2.3064 C.3       8 UNK         0.0242 
     51 CB         31.0643   35.8081    2.9322 C.3       8 UNK        -0.2000 
     52 C          29.5857   33.7237    3.2196 C.2       8 UNK         0.4948 
     53 O          29.0047   34.3194    4.1280 O.2       8 UNK        -0.5275 
     54 N          29.4351   32.4160    2.9609 N.am      9 UNK        -0.4246 
     55 CA         28.6262   31.4380    3.6922 C.3       9 UNK         0.0261 
     56 CB         27.1418   31.8539    3.7859 C.3       9 UNK        -0.1959 
     57 C          29.2123   31.0001    5.0457 C.2       9 UNK         0.5033 
     58 O          28.5088   30.3312    5.8060 O.2       9 UNK        -0.5390 
     59 N          30.4985   31.2884    5.3111 N.am      10 UNK        -0.4215 
     60 CA         31.2288   30.7624    6.4749 C.3       10 UNK         0.0240 
     61 CB         32.5871   31.4666    6.6124 C.3       10 UNK        -0.1982 
     62 C          31.4147   29.2319    6.4446 C.2       10 UNK         0.4970 
     63 O          31.6655   28.6395    7.4948 O.2       10 UNK        -0.4916 
     64 N          31.2586   28.6200    5.2622 N.am      11 UNK        -0.4279 
     65 CA         31.1615   27.1662    5.0679 C.3       11 UNK         0.1003 
     66 C          29.8762   26.5262    5.6741 C.2       11 UNK         0.5709 
     67 N          28.8614   27.2886    6.0711 N.am      11 UNK        -0.7358 
     68 O          29.8105   25.3084    5.8113 O.2       11 UNK        -0.4999 
     69 C69        31.3297   26.7735    3.5760 C.3       12 UNK        -0.0954 
     70 S70        32.8941   27.3907    2.8683 S.3       12 UNK        -0.2268 
     71 C71        33.8990   25.8685    2.7749 C.3       12 UNK         0.0203 
     72 H72        27.9340   20.1737   -1.6422 H         1 UNK         0.0888 
     73 H73        26.7647   21.3671   -1.0692 H         1 UNK         0.0888 
     74 H74        28.3199   21.8936   -1.7157 H         1 UNK         0.0888 
     75 H75        29.7145   22.5266   -0.1166 H         1 UNK         0.3017 
     76 H76        30.8115   22.7876    1.7515 H         1 UNK         0.0873 
     77 H77        31.5961   20.8782    3.0863 H         1 UNK         0.0745 
     78 H78        30.3159   19.8624    2.4829 H         1 UNK         0.0745 
     79 H79        33.9397   20.9007    2.1265 H         1 UNK         0.0705 
     80 H80        34.3339   20.7466    0.4306 H         1 UNK         0.0705 
     81 H81        34.1550   23.1695    2.7968 H         1 UNK         0.1334 
     82 H82        32.6912   26.3602    0.3305 H         1 UNK         0.1417 
     83 H83        32.4641   22.3224   -1.0535 H         1 UNK         0.1562 
     84 H84        32.1354   24.2869   -2.5963 H         1 UNK         0.0748 
     85 H85        32.0321   25.9029   -1.9591 H         1 UNK         0.0748 
     86 H86        30.2900   26.0372    0.3938 H         1 UNK         0.0940 
     87 H87        28.6685   25.4730    0.1914 H         1 UNK         0.0940 
     88 H88        28.4880   27.0483   -1.8720 H         1 UNK         0.0703 
     89 H89        28.2420   27.7927    0.9288 H         1 UNK         0.3081 
     90 H90        27.4277   30.3611    1.2049 H         1 UNK         0.0719 
     91 H91        26.0432   31.4818   -0.5025 H         1 UNK         0.0809 
     92 H92        24.8057   30.2403   -0.3619 H         1 UNK         0.0809 
     93 H93        25.1409   31.3205    0.9916 H         1 UNK         0.0809 
     94 H94        25.0251   28.8479    1.6770 H         1 UNK         0.2990 
     95 H95        25.7567   27.9156    4.5358 H         1 UNK         0.0690 
     96 H96        23.7375   26.5774    3.8362 H         1 UNK         0.0788 
     97 H97        24.2505   26.6886    2.1580 H         1 UNK         0.0788 
     98 H98        23.7988   28.1402    3.0548 H         1 UNK         0.0788 
     99 H99        26.5148   25.8796    4.9188 H         1 UNK         0.2993 
    100 H100       27.8106   24.0559    4.6109 H         1 UNK         0.0949 
    101 H101       26.5444   21.8908    4.4898 H         1 UNK         0.0767 
    102 H102       25.4319   23.2281    4.7310 H         1 UNK         0.0767 
    103 H103       25.5955   22.5022    3.1362 H         1 UNK         0.0767 
    104 H104       28.0559   23.5019    1.7869 H         1 UNK         0.3013 
    105 H105       30.5010   28.7974    0.5440 H         1 UNK         0.3121 
    106 H106       31.7571   30.4397   -1.3686 H         1 UNK         0.0774 
    107 H107       33.6405   28.4214    0.0028 H         1 UNK         0.0815 
    108 H108       34.0917   29.6711   -1.1411 H         1 UNK         0.0815 
    109 H109       33.1733   28.2908   -1.6915 H         1 UNK         0.0815 
    110 H110       33.7328   31.4914   -0.0170 H         1 UNK         0.2987 
    111 H111       34.4124   32.8247    1.6326 H         1 UNK         0.0949 
    112 H112       33.5775   30.4572    3.3926 H         1 UNK         0.0806 
    113 H113       35.0721   30.5522    2.4657 H         1 UNK         0.0806 
    114 H114       34.7890   31.6702    3.7880 H         1 UNK         0.0806 
    115 H115       31.8311   33.5504    0.8767 H         1 UNK         0.3010 
    116 H116       30.0156   34.7338    1.4030 H         1 UNK         0.0829 
    117 H117       31.5856   35.6402    3.8754 H         1 UNK         0.0813 
    118 H118       31.7433   36.3365    2.2631 H         1 UNK         0.0813 
    119 H119       30.2286   36.4782    3.1378 H         1 UNK         0.0813 
    120 H120       30.0220   32.0103    2.2388 H         1 UNK         0.3038 
    121 H121       28.6750   30.5398    3.0798 H         1 UNK         0.0769 
    122 H122       26.5247   31.0198    4.1216 H         1 UNK         0.0811 
    123 H123       26.9929   32.6681    4.4953 H         1 UNK         0.0811 
    124 H124       26.7537   32.1752    2.8199 H         1 UNK         0.0811 
    125 H125       31.0294   31.8637    4.6635 H         1 UNK         0.3204 
    126 H126       30.6390   30.9959    7.3638 H         1 UNK         0.0748 
    127 H127       33.1000   31.1509    7.5218 H         1 UNK         0.0771 
    128 H128       33.2453   31.2389    5.7742 H         1 UNK         0.0771 
    129 H129       32.4712   32.5493    6.6656 H         1 UNK         0.0771 
    130 H130       31.0837   29.1832    4.4436 H         1 UNK         0.2980 
    131 H131       31.9951   26.7205    5.6138 H         1 UNK         0.0545 
    132 H132       28.8844   28.2951    5.9550 H         1 UNK         0.3459 
    133 H133       28.0691   26.8577    6.5155 H         1 UNK         0.3459 
    134 H134       31.2847   25.6898    3.4524 H         1 UNK         0.0616 
    135 H135       30.5090   27.1803    2.9827 H         1 UNK         0.0616 
    136 H136       33.8856   25.3870    3.7540 H         1 UNK         0.0634 
    137 H137       34.9338   26.1545    2.5843 H         1 UNK         0.0634 
@<TRIPOS>BOND
     1    1    2 1    
     2    1   72 1    
     3    1   73 1    
     4    1   74 1    
     5    2    3 2    
     6    2    4 am   BACKBONE|DICT|INTERRES
     7    4    5 1    
     8    4   75 1    
     9    5    6 1    
    10    5   35 1    
    11    5   76 1    
    12    6    7 1    
    13    6   77 1    
    14    6   78 1    
    15    7    8 1    
    16    8    9 1    
    17    8   79 1    
    18    8   80 1    
    19    9   10 ar   
    20    9   14 ar   
    21   10   11 ar   
    22   10   81 1    
    23   11   12 ar   
    24   11   71 1    
    25   12   13 ar   
    26   12   82 1    
    27   13   14 ar   
    28   13   15 1    
    29   14   83 1    
    30   15   16 1    
    31   15   84 1    
    32   15   85 1    
    33   16   17 1    
    34   17   18 1    
    35   17   86 1    
    36   17   87 1    
    37   18   19 1    
    38   18   37 1    
    39   18   88 1    
    40   19   20 am   BACKBONE|DICT|INTERRES
    41   19   89 1    
    42   20   21 2    
    43   20   22 1    
    44   22   23 1    
    45   22   24 1    
    46   22   90 1    
    47   23   91 1    
    48   23   92 1    
    49   23   93 1    
    50   24   25 am   BACKBONE|DICT|INTERRES
    51   24   94 1    
    52   25   26 2    
    53   25   27 1    
    54   27   28 1    
    55   27   29 1    
    56   27   95 1    
    57   28   96 1    
    58   28   97 1    
    59   28   98 1    
    60   29   30 am   BACKBONE|DICT|INTERRES
    61   29   99 1    
    62   30   31 2    
    63   30   32 1    
    64   32   33 1    
    65   32   34 1    
    66   32  100 1    
    67   33  101 1    
    68   33  102 1    
    69   33  103 1    
    70   34   35 am   BACKBONE|DICT|INTERRES
    71   34  104 1    
    72   35   36 2    
    73   37   38 2    
    74   37   39 am   BACKBONE|DICT|INTERRES
    75   39   40 1    
    76   39  105 1    
    77   40   41 1    
    78   40   42 1    
    79   40  106 1    
    80   41  107 1    
    81   41  108 1    
    82   41  109 1    
    83   42   43 2    
    84   42   44 am   BACKBONE|DICT|INTERRES
    85   44   45 1    
    86   44  110 1    
    87   45   46 1    
    88   45   47 1    
    89   45  111 1    
    90   46  112 1    
    91   46  113 1    
    92   46  114 1    
    93   47   48 2    
    94   47   49 am   BACKBONE|DICT|INTERRES
    95   49   50 1    
    96   49  115 1    
    97   50   51 1    
    98   50   52 1    
    99   50  116 1    
   100   51  117 1    
   101   51  118 1    
   102   51  119 1    
   103   52   53 2    
   104   52   54 am   BACKBONE|DICT|INTERRES
   105   54   55 1    
   106   54  120 1    
   107   55   56 1    
   108   55   57 1    
   109   55  121 1    
   110   56  122 1    
   111   56  123 1    
   112   56  124 1    
   113   57   58 2    
   114   57   59 am   BACKBONE|DICT|INTERRES
   115   59   60 1    
   116   59  125 1    
   117   60   61 1    
   118   60   62 1    
   119   60  126 1    
   120   61  127 1    
   121   61  128 1    
   122   61  129 1    
   123   62   63 2    
   124   62   64 am   BACKBONE|DICT|INTERRES
   125   64   65 1    
   126   64  130 1    
   127   65   66 1    
   128   65   69 1    
   129   65  131 1    
   130   66   67 am   BACKBONE|DICT|INTERRES
   131   66   68 2    
   132   67  132 1    
   133   67  133 1    
   134   69   70 1    
   135   69  134 1    
   136   69  135 1    
   137   70   71 1    
   138   71  136 1    
   139   71  137 1    
@<TRIPOS>SUBSTRUCTURE
     1 UNK         1 GROUP             0       ****    0 ROOT    
