@<TRIPOS>MOLECULE
3R136
137   139    1
SMALL
USER_CHARGES


@<TRIPOS>ATOM
      1 CA         29.0336   24.2342   -3.0033 C.3       0 UNK        -0.1979 
      2 C          28.6674   24.3040   -1.5295 C.2       0 UNK         0.4864 
      3 O          28.2321   25.3518   -1.0558 O.2       0 UNK        -0.5359 
      4 N          28.8446   23.2033   -0.7882 N.am      1 UNK        -0.4318 
      5 CA         28.5229   23.0983    0.6386 C.3       1 UNK         0.0824 
      6 C6         29.0326   21.7576    1.2229 C.3       12 UNK        -0.0944 
      7 S7         29.3227   21.8342    3.0222 S.3       12 UNK        -0.2672 
      8 C8         31.1392   21.7132    3.1271 C.3       12 UNK         0.0333 
      9 C9         31.8087   23.0805    3.0935 C.ar      12 UNK        -0.0807 
     10 C10        32.1806   23.7000    4.2909 C.ar      12 UNK        -0.0894 
     11 C11        32.8108   24.9481    4.2941 C.ar      12 UNK        -0.0804 
     12 C12        33.0728   25.5710    3.0663 C.ar      12 UNK        -0.0824 
     13 C13        32.7241   24.9582    1.8585 C.ar      12 UNK        -0.0762 
     14 C14        32.0844   23.7144    1.8780 C.ar      12 UNK        -0.0782 
     15 C15        33.1103   25.6090    0.5354 C.3       12 UNK         0.0230 
     16 S16        32.4998   27.3179    0.3715 S.3       12 UNK        -0.2608 
     17 C17        30.7717   27.0472   -0.1258 C.3       12 UNK        -0.0989 
     18 CA         29.7898   27.9544    0.6571 C.3       5 UNK         0.0716 
     19 N          28.6278   28.3437   -0.1339 N.am      5 UNK        -0.4135 
     20 C          28.5340   29.3711   -0.9810 C.2       4 UNK         0.5031 
     21 O          29.4940   30.0645   -1.3199 O.2       4 UNK        -0.5229 
     22 CA         27.1161   29.7280   -1.4773 C.3       4 UNK         0.0329 
     23 CB         27.1131   30.4203   -2.8580 C.3       4 UNK        -0.2001 
     24 N          26.1600   28.6101   -1.4112 N.am      4 UNK        -0.4303 
     25 C          26.1073   27.5283   -2.2033 C.2       3 UNK         0.5044 
     26 O          26.8466   27.3351   -3.1695 O.2       3 UNK        -0.5152 
     27 CA         25.0627   26.4741   -1.8056 C.3       3 UNK         0.0319 
     28 CB         24.8748   25.3709   -2.8645 C.3       3 UNK        -0.2001 
     29 N          25.4762   25.8697   -0.5408 N.am      3 UNK        -0.4354 
     30 C          24.6626   25.5305    0.4688 C.2       2 UNK         0.4964 
     31 O          23.4410   25.6859    0.4315 O.2       2 UNK        -0.5047 
     32 CA         25.3110   24.9572    1.7478 C.3       2 UNK         0.0288 
     33 CB         24.4022   23.9600    2.4986 C.3       2 UNK        -0.2113 
     34 N          26.6582   24.4161    1.5330 N.am      2 UNK        -0.4145 
     35 C          27.0081   23.3061    0.8669 C.2       1 UNK         0.5006 
     36 O          26.2094   22.4934    0.3946 O.2       1 UNK        -0.5103 
     37 C          29.2266   27.2746    1.9147 C.2       5 UNK         0.5055 
     38 O          28.0950   26.7797    1.8770 O.2       5 UNK        -0.5220 
     39 N          29.9745   27.3054    3.0232 N.am      6 UNK        -0.4450 
     40 CA         29.5938   26.8731    4.3796 C.3       6 UNK         0.0367 
     41 CB         29.0914   25.4150    4.4132 C.3       6 UNK        -0.1929 
     42 C          28.5749   27.8252    5.0294 C.2       6 UNK         0.5070 
     43 O          28.8288   28.3399    6.1178 O.2       6 UNK        -0.5237 
     44 N          27.4649   28.0816    4.3233 N.am      7 UNK        -0.4739 
     45 CA         26.4918   29.1373    4.6171 C.3       7 UNK         0.0276 
     46 CB         25.2434   28.9276    3.7447 C.3       7 UNK        -0.1927 
     47 C          27.0833   30.5422    4.3954 C.2       7 UNK         0.5013 
     48 O          26.7050   31.4801    5.0976 O.2       7 UNK        -0.5193 
     49 N          28.0281   30.6402    3.4514 N.am      8 UNK        -0.4253 
     50 CA         28.9563   31.7527    3.2962 C.3       8 UNK         0.0242 
     51 CB         29.0518   32.1415    1.8119 C.3       8 UNK        -0.2000 
     52 C          30.3066   31.2521    3.8177 C.2       8 UNK         0.4948 
     53 O          30.7933   30.2233    3.3388 O.2       8 UNK        -0.5275 
     54 N          30.8849   31.9637    4.7912 N.am      9 UNK        -0.4246 
     55 CA         32.0865   31.5658    5.5333 C.3       9 UNK         0.0261 
     56 CB         32.1110   32.3177    6.8777 C.3       9 UNK        -0.1959 
     57 C          33.4012   31.7302    4.7416 C.2       9 UNK         0.5033 
     58 O          34.3850   32.2379    5.2833 O.2       9 UNK        -0.5390 
     59 N          33.4210   31.2668    3.4850 N.am      10 UNK        -0.4215 
     60 CA         34.6003   31.2443    2.6096 C.3       10 UNK         0.0240 
     61 CB         34.1704   30.8434    1.1906 C.3       10 UNK        -0.1982 
     62 C          35.7193   30.3187    3.1263 C.2       10 UNK         0.4970 
     63 O          36.8926   30.5668    2.8476 O.2       10 UNK        -0.4916 
     64 N          35.3305   29.2966    3.8966 N.am      11 UNK        -0.4279 
     65 CA         36.2019   28.4328    4.7032 C.3       11 UNK         0.1003 
     66 C          36.8120   29.1128    5.9670 C.2       11 UNK         0.5709 
     67 N          36.4328   30.3317    6.3362 N.am      11 UNK        -0.7358 
     68 O          37.6685   28.5231    6.6217 O.2       11 UNK        -0.4999 
     69 C69        35.4997   27.0873    5.0437 C.3       12 UNK        -0.0954 
     70 S70        33.7793   27.2832    5.6412 S.3       12 UNK        -0.2268 
     71 C71        33.1961   25.5522    5.6490 C.3       12 UNK         0.0203 
     72 H72        28.1974   24.5748   -3.6132 H         1 UNK         0.0888 
     73 H73        29.8850   24.8835   -3.2051 H         1 UNK         0.0888 
     74 H74        29.2923   23.2220   -3.3130 H         1 UNK         0.0888 
     75 H75        29.1705   22.3562   -1.2307 H         1 UNK         0.3017 
     76 H76        29.0630   23.9095    1.1336 H         1 UNK         0.0873 
     77 H77        28.3395   20.9406    1.0122 H         1 UNK         0.0745 
     78 H78        29.9654   21.4707    0.7363 H         1 UNK         0.0745 
     79 H79        31.5321   21.0771    2.3330 H         1 UNK         0.0705 
     80 H80        31.3907   21.2041    4.0588 H         1 UNK         0.0705 
     81 H81        31.9742   23.2066    5.2311 H         1 UNK         0.1334 
     82 H82        33.5617   26.5324    3.0279 H         1 UNK         0.1417 
     83 H83        31.8192   23.2287    0.9491 H         1 UNK         0.1562 
     84 H84        32.7646   25.0178   -0.3142 H         1 UNK         0.0748 
     85 H85        34.1989   25.6263    0.4690 H         1 UNK         0.0748 
     86 H86        30.5167   25.9926   -0.0167 H         1 UNK         0.0940 
     87 H87        30.7125   27.2555   -1.1953 H         1 UNK         0.0940 
     88 H88        30.2945   28.8721    0.9674 H         1 UNK         0.0703 
     89 H89        27.8029   27.8016    0.0884 H         1 UNK         0.3081 
     90 H90        26.7445   30.4618   -0.7604 H         1 UNK         0.0719 
     91 H91        27.6706   31.3572   -2.8245 H         1 UNK         0.0809 
     92 H92        27.5761   29.8004   -3.6259 H         1 UNK         0.0809 
     93 H93        26.1003   30.6594   -3.1819 H         1 UNK         0.0809 
     94 H94        25.4960   28.6569   -0.6502 H         1 UNK         0.2990 
     95 H95        24.1114   26.9963   -1.6825 H         1 UNK         0.0690 
     96 H96        24.0833   24.6789   -2.5766 H         1 UNK         0.0788 
     97 H97        25.7873   24.7918   -3.0080 H         1 UNK         0.0788 
     98 H98        24.5997   25.7974   -3.8298 H         1 UNK         0.0788 
     99 H99        26.4773   25.6949   -0.4613 H         1 UNK         0.2993 
    100 H100       25.4507   25.8166    2.4051 H         1 UNK         0.0949 
    101 H101       23.4775   24.4410    2.8198 H         1 UNK         0.0767 
    102 H102       24.1231   23.1123    1.8725 H         1 UNK         0.0767 
    103 H103       24.8916   23.5728    3.3923 H         1 UNK         0.0767 
    104 H104       27.3968   25.0716    1.7808 H         1 UNK         0.3013 
    105 H105       30.8570   27.7987    2.9712 H         1 UNK         0.3121 
    106 H106       30.5108   26.9228    4.9686 H         1 UNK         0.0774 
    107 H107       28.0586   25.3201    4.0780 H         1 UNK         0.0815 
    108 H108       29.6980   24.7736    3.7784 H         1 UNK         0.0815 
    109 H109       29.1376   25.0143    5.4260 H         1 UNK         0.0815 
    110 H110       27.3679   27.5924    3.4381 H         1 UNK         0.2987 
    111 H111       26.2039   29.0579    5.6678 H         1 UNK         0.0949 
    112 H112       24.7780   27.9623    3.9447 H         1 UNK         0.0806 
    113 H113       24.4943   29.6947    3.9463 H         1 UNK         0.0806 
    114 H114       25.4793   28.9729    2.6807 H         1 UNK         0.0806 
    115 H115       28.3055   29.7865    2.9913 H         1 UNK         0.3010 
    116 H116       28.6275   32.6206    3.8721 H         1 UNK         0.0829 
    117 H117       28.0776   32.4237    1.4123 H         1 UNK         0.0813 
    118 H118       29.7184   32.9939    1.6761 H         1 UNK         0.0813 
    119 H119       29.4405   31.3266    1.2008 H         1 UNK         0.0813 
    120 H120       30.4376   32.8161    5.0976 H         1 UNK         0.3038 
    121 H121       32.0003   30.5006    5.7607 H         1 UNK         0.0769 
    122 H122       32.9462   31.9879    7.4974 H         1 UNK         0.0811 
    123 H123       31.2005   32.1391    7.4501 H         1 UNK         0.0811 
    124 H124       32.2150   33.3941    6.7357 H         1 UNK         0.0811 
    125 H125       32.5642   30.8410    3.1373 H         1 UNK         0.3204 
    126 H126       35.0067   32.2572    2.5719 H         1 UNK         0.0748 
    127 H127       35.0224   30.8386    0.5093 H         1 UNK         0.0771 
    128 H128       33.7322   29.8462    1.1727 H         1 UNK         0.0771 
    129 H129       33.4353   31.5394    0.7859 H         1 UNK         0.0771 
    130 H130       34.3437   29.1772    4.0683 H         1 UNK         0.2980 
    131 H131       37.0637   28.1874    4.0798 H         1 UNK         0.0545 
    132 H132       36.8541   30.7422    7.1538 H         1 UNK         0.3459 
    133 H133       35.7405   30.8586    5.8163 H         1 UNK         0.3459 
    134 H134       35.4938   26.4597    4.1532 H         1 UNK         0.0616 
    135 H135       36.0654   26.5184    5.7839 H         1 UNK         0.0616 
    136 H136       33.9603   24.9266    6.1122 H         1 UNK         0.0634 
    137 H137       32.3252   25.5077    6.3046 H         1 UNK         0.0634 
@<TRIPOS>BOND
     1    1    2 1    
     2    1   72 1    
     3    1   73 1    
     4    1   74 1    
     5    2    3 2    
     6    2    4 am   BACKBONE|DICT|INTERRES
     7    4    5 1    
     8    4   75 1    
     9    5    6 1    
    10    5   35 1    
    11    5   76 1    
    12    6    7 1    
    13    6   77 1    
    14    6   78 1    
    15    7    8 1    
    16    8    9 1    
    17    8   79 1    
    18    8   80 1    
    19    9   10 ar   
    20    9   14 ar   
    21   10   11 ar   
    22   10   81 1    
    23   11   12 ar   
    24   11   71 1    
    25   12   13 ar   
    26   12   82 1    
    27   13   14 ar   
    28   13   15 1    
    29   14   83 1    
    30   15   16 1    
    31   15   84 1    
    32   15   85 1    
    33   16   17 1    
    34   17   18 1    
    35   17   86 1    
    36   17   87 1    
    37   18   19 1    
    38   18   37 1    
    39   18   88 1    
    40   19   20 am   BACKBONE|DICT|INTERRES
    41   19   89 1    
    42   20   21 2    
    43   20   22 1    
    44   22   23 1    
    45   22   24 1    
    46   22   90 1    
    47   23   91 1    
    48   23   92 1    
    49   23   93 1    
    50   24   25 am   BACKBONE|DICT|INTERRES
    51   24   94 1    
    52   25   26 2    
    53   25   27 1    
    54   27   28 1    
    55   27   29 1    
    56   27   95 1    
    57   28   96 1    
    58   28   97 1    
    59   28   98 1    
    60   29   30 am   BACKBONE|DICT|INTERRES
    61   29   99 1    
    62   30   31 2    
    63   30   32 1    
    64   32   33 1    
    65   32   34 1    
    66   32  100 1    
    67   33  101 1    
    68   33  102 1    
    69   33  103 1    
    70   34   35 am   BACKBONE|DICT|INTERRES
    71   34  104 1    
    72   35   36 2    
    73   37   38 2    
    74   37   39 am   BACKBONE|DICT|INTERRES
    75   39   40 1    
    76   39  105 1    
    77   40   41 1    
    78   40   42 1    
    79   40  106 1    
    80   41  107 1    
    81   41  108 1    
    82   41  109 1    
    83   42   43 2    
    84   42   44 am   BACKBONE|DICT|INTERRES
    85   44   45 1    
    86   44  110 1    
    87   45   46 1    
    88   45   47 1    
    89   45  111 1    
    90   46  112 1    
    91   46  113 1    
    92   46  114 1    
    93   47   48 2    
    94   47   49 am   BACKBONE|DICT|INTERRES
    95   49   50 1    
    96   49  115 1    
    97   50   51 1    
    98   50   52 1    
    99   50  116 1    
   100   51  117 1    
   101   51  118 1    
   102   51  119 1    
   103   52   53 2    
   104   52   54 am   BACKBONE|DICT|INTERRES
   105   54   55 1    
   106   54  120 1    
   107   55   56 1    
   108   55   57 1    
   109   55  121 1    
   110   56  122 1    
   111   56  123 1    
   112   56  124 1    
   113   57   58 2    
   114   57   59 am   BACKBONE|DICT|INTERRES
   115   59   60 1    
   116   59  125 1    
   117   60   61 1    
   118   60   62 1    
   119   60  126 1    
   120   61  127 1    
   121   61  128 1    
   122   61  129 1    
   123   62   63 2    
   124   62   64 am   BACKBONE|DICT|INTERRES
   125   64   65 1    
   126   64  130 1    
   127   65   66 1    
   128   65   69 1    
   129   65  131 1    
   130   66   67 am   BACKBONE|DICT|INTERRES
   131   66   68 2    
   132   67  132 1    
   133   67  133 1    
   134   69   70 1    
   135   69  134 1    
   136   69  135 1    
   137   70   71 1    
   138   71  136 1    
   139   71  137 1    
@<TRIPOS>SUBSTRUCTURE
     1 UNK         1 GROUP             0       ****    0 ROOT    
