@<TRIPOS>MOLECULE
3R136
137   139    1
SMALL
USER_CHARGES


@<TRIPOS>ATOM
      1 CA         31.8495   25.8815   -2.4852 C.3       0 UNK        -0.1979 
      2 C          31.2906   25.2325   -1.2271 C.2       0 UNK         0.4864 
      3 O          31.5353   25.7320   -0.1294 O.2       0 UNK        -0.5359 
      4 N          30.5463   24.1310   -1.3898 N.am      1 UNK        -0.4318 
      5 CA         29.8966   23.3837   -0.3102 C.3       1 UNK         0.0824 
      6 C6         30.0447   21.8479   -0.4928 C.3       12 UNK        -0.0944 
      7 S7         31.7775   21.3011   -0.3396 S.3       12 UNK        -0.2672 
      8 C8         31.8029   20.6223    1.3522 C.3       12 UNK         0.0333 
      9 C9         31.7795   21.7199    2.4072 C.ar      12 UNK        -0.0807 
     10 C10        32.9741   22.3337    2.8002 C.ar      12 UNK        -0.0894 
     11 C11        32.9689   23.3348    3.7758 C.ar      12 UNK        -0.0804 
     12 C12        31.7600   23.7123    4.3637 C.ar      12 UNK        -0.0824 
     13 C13        30.5547   23.1422    3.9477 C.ar      12 UNK        -0.0762 
     14 C14        30.5711   22.1269    2.9863 C.ar      12 UNK        -0.0782 
     15 C15        29.2402   23.6623    4.5149 C.3       12 UNK         0.0230 
     16 S16        28.4797   24.9249    3.4358 S.3       12 UNK        -0.2608 
     17 C17        29.8599   26.1033    3.1967 C.3       12 UNK        -0.0989 
     18 CA         29.4823   27.5076    2.6656 C.3       5 UNK         0.0716 
     19 N          28.7607   27.4780    1.3919 N.am      5 UNK        -0.4135 
     20 C          28.5155   28.5613    0.6405 C.2       4 UNK         0.5031 
     21 O          28.8993   29.6934    0.9378 O.2       4 UNK        -0.5229 
     22 CA         27.6929   28.3787   -0.6421 C.3       4 UNK         0.0329 
     23 CB         28.5856   27.9278   -1.8078 C.3       4 UNK        -0.2001 
     24 N          26.6095   27.4139   -0.4481 N.am      4 UNK        -0.4303 
     25 C          25.3090   27.7301   -0.3788 C.2       3 UNK         0.5044 
     26 O          24.8853   28.8784   -0.5188 O.2       3 UNK        -0.5152 
     27 CA         24.2904   26.6107   -0.0730 C.3       3 UNK         0.0319 
     28 CB         23.1659   26.5543   -1.1291 C.3       3 UNK        -0.2001 
     29 N          24.8682   25.2810    0.1681 N.am      3 UNK        -0.4354 
     30 C          25.4555   24.4548   -0.7094 C.2       2 UNK         0.4964 
     31 O          25.5831   24.6805   -1.9140 O.2       2 UNK        -0.5047 
     32 CA         26.0261   23.1547   -0.1145 C.3       2 UNK         0.0288 
     33 CB         25.2522   21.9340   -0.6397 C.3       2 UNK        -0.2113 
     34 N          27.4595   22.9605   -0.3634 N.am      2 UNK        -0.4145 
     35 C          28.4361   23.8628   -0.1716 C.2       1 UNK         0.5006 
     36 O          28.2225   25.0361    0.1377 O.2       1 UNK        -0.5103 
     37 C          28.7478   28.3673    3.7137 C.2       5 UNK         0.5055 
     38 O          27.5288   28.2550    3.8626 O.2       5 UNK        -0.5220 
     39 N          29.5048   29.2604    4.3636 N.am      6 UNK        -0.4450 
     40 CA         29.1015   30.3169    5.3018 C.3       6 UNK         0.0367 
     41 CB         28.3282   29.7557    6.5107 C.3       6 UNK        -0.1929 
     42 C          28.3501   31.4895    4.6424 C.2       6 UNK         0.5070 
     43 O          28.5082   32.6229    5.0955 O.2       6 UNK        -0.5237 
     44 N          27.5671   31.2185    3.5905 N.am      7 UNK        -0.4739 
     45 CA         26.8367   32.2101    2.8011 C.3       7 UNK         0.0276 
     46 CB         25.7940   31.4997    1.9213 C.3       7 UNK        -0.1927 
     47 C          27.7725   33.0869    1.9532 C.2       7 UNK         0.5013 
     48 O          27.6848   34.3132    2.0302 O.2       7 UNK        -0.5193 
     49 N          28.6473   32.4458    1.1671 N.am      8 UNK        -0.4253 
     50 CA         29.6469   33.1071    0.3282 C.3       8 UNK         0.0242 
     51 CB         29.8646   32.2939   -0.9596 C.3       8 UNK        -0.2000 
     52 C          30.9688   33.2921    1.0851 C.2       8 UNK         0.4948 
     53 O          31.5476   34.3780    1.0292 O.2       8 UNK        -0.5275 
     54 N          31.4179   32.2420    1.7836 N.am      9 UNK        -0.4246 
     55 CA         32.6358   32.2208    2.5898 C.3       9 UNK         0.0261 
     56 CB         33.8748   32.0682    1.6875 C.3       9 UNK        -0.1959 
     57 C          32.5454   31.0582    3.5806 C.2       9 UNK         0.5033 
     58 O          31.9211   30.0414    3.2673 O.2       9 UNK        -0.5390 
     59 N          33.1685   31.2190    4.7514 N.am      10 UNK        -0.4215 
     60 CA         33.2697   30.1811    5.7778 C.3       10 UNK         0.0240 
     61 CB         33.3516   30.8523    7.1590 C.3       10 UNK        -0.1982 
     62 C          34.4994   29.2918    5.5344 C.2       10 UNK         0.4970 
     63 O          35.4836   29.7474    4.9463 O.2       10 UNK        -0.4916 
     64 N          34.4305   28.0571    6.0351 N.am      11 UNK        -0.4279 
     65 CA         35.4936   27.0468    5.9946 C.3       11 UNK         0.1003 
     66 C          35.2787   25.9827    7.1028 C.2       11 UNK         0.5709 
     67 N          36.2762   25.1501    7.3677 N.am      11 UNK        -0.7358 
     68 O          34.2179   25.8989    7.7212 O.2       11 UNK        -0.4999 
     69 C69        35.7111   26.4288    4.5803 C.3       12 UNK        -0.0954 
     70 S70        34.1931   25.8062    3.7799 S.3       12 UNK        -0.2268 
     71 C71        34.2559   24.0321    4.1900 C.3       12 UNK         0.0203 
     72 H72        32.9384   25.8417   -2.4738 H         1 UNK         0.0888 
     73 H73        31.5005   25.3859   -3.3910 H         1 UNK         0.0888 
     74 H74        31.5476   26.9274   -2.5339 H         1 UNK         0.0888 
     75 H75        30.3736   23.7860   -2.3230 H         1 UNK         0.3017 
     76 H76        30.3710   23.6438    0.6382 H         1 UNK         0.0873 
     77 H77        29.4517   21.3017    0.2424 H         1 UNK         0.0745 
     78 H78        29.6797   21.5373   -1.4736 H         1 UNK         0.0745 
     79 H79        32.7067   20.0228    1.4722 H         1 UNK         0.0705 
     80 H80        30.9676   19.9341    1.4907 H         1 UNK         0.0705 
     81 H81        33.9060   22.0351    2.3394 H         1 UNK         0.1334 
     82 H82        31.7571   24.4919    5.1133 H         1 UNK         0.1417 
     83 H83        29.6405   21.6743    2.6726 H         1 UNK         0.1562 
     84 H84        29.3958   24.0883    5.5073 H         1 UNK         0.0748 
     85 H85        28.5390   22.8367    4.6447 H         1 UNK         0.0748 
     86 H86        30.5642   25.6452    2.4995 H         1 UNK         0.0940 
     87 H87        30.4037   26.2070    4.1369 H         1 UNK         0.0940 
     88 H88        30.4284   28.0062    2.4443 H         1 UNK         0.0703 
     89 H89        28.4619   26.5614    1.0662 H         1 UNK         0.3081 
     90 H90        27.2891   29.3594   -0.9023 H         1 UNK         0.0719 
     91 H91        28.9813   26.9264   -1.6466 H         1 UNK         0.0809 
     92 H92        28.0309   27.9180   -2.7460 H         1 UNK         0.0809 
     93 H93        29.4333   28.6022   -1.9370 H         1 UNK         0.0809 
     94 H94        26.8904   26.4482   -0.3111 H         1 UNK         0.2990 
     95 H95        23.8266   26.8952    0.8727 H         1 UNK         0.0690 
     96 H96        22.4327   25.7843   -0.8892 H         1 UNK         0.0788 
     97 H97        23.5536   26.3514   -2.1276 H         1 UNK         0.0788 
     98 H98        22.6310   27.5035   -1.1802 H         1 UNK         0.0788 
     99 H99        24.8500   24.9907    1.1366 H         1 UNK         0.2993 
    100 H100       25.9041   23.1870    0.9702 H         1 UNK         0.0949 
    101 H101       25.3846   21.8065   -1.7150 H         1 UNK         0.0767 
    102 H102       25.5749   21.0153   -0.1493 H         1 UNK         0.0767 
    103 H103       24.1824   22.0396   -0.4537 H         1 UNK         0.0767 
    104 H104       27.7273   22.0321   -0.6533 H         1 UNK         0.3013 
    105 H105       30.4709   29.3488    4.0444 H         1 UNK         0.3121 
    106 H106       30.0361   30.7325    5.6821 H         1 UNK         0.0774 
    107 H107       28.1605   30.5340    7.2561 H         1 UNK         0.0815 
    108 H108       27.3498   29.3672    6.2275 H         1 UNK         0.0815 
    109 H109       28.8815   28.9531    6.9981 H         1 UNK         0.0815 
    110 H110       27.4743   30.2468    3.3163 H         1 UNK         0.2987 
    111 H111       26.3045   32.8668    3.4930 H         1 UNK         0.0949 
    112 H112       25.2301   32.2190    1.3260 H         1 UNK         0.0806 
    113 H113       26.2550   30.7950    1.2283 H         1 UNK         0.0806 
    114 H114       25.0751   30.9473    2.5265 H         1 UNK         0.0806 
    115 H115       28.6577   31.4254    1.1664 H         1 UNK         0.3010 
    116 H116       29.2830   34.0956    0.0390 H         1 UNK         0.0829 
    117 H117       28.9334   32.1727   -1.5131 H         1 UNK         0.0813 
    118 H118       30.5725   32.7958   -1.6205 H         1 UNK         0.0813 
    119 H119       30.2617   31.2993   -0.7539 H         1 UNK         0.0813 
    120 H120       30.8873   31.3788    1.7992 H         1 UNK         0.3038 
    121 H121       32.7034   33.1549    3.1518 H         1 UNK         0.0769 
    122 H122       33.8237   31.1578    1.0888 H         1 UNK         0.0811 
    123 H123       34.7888   32.0174    2.2809 H         1 UNK         0.0811 
    124 H124       33.9802   32.9118    1.0053 H         1 UNK         0.0811 
    125 H125       33.7123   32.0562    4.9059 H         1 UNK         0.3204 
    126 H126       32.3754   29.5543    5.7528 H         1 UNK         0.0748 
    127 H127       33.3968   30.1082    7.9555 H         1 UNK         0.0771 
    128 H128       34.2375   31.4822    7.2514 H         1 UNK         0.0771 
    129 H129       32.4764   31.4741    7.3492 H         1 UNK         0.0771 
    130 H130       33.6104   27.7613    6.5481 H         1 UNK         0.2980 
    131 H131       36.4156   27.5603    6.2743 H         1 UNK         0.0545 
    132 H132       37.1533   25.2097    6.8747 H         1 UNK         0.3459 
    133 H133       36.1523   24.4528    8.0849 H         1 UNK         0.3459 
    134 H134       36.4617   25.6372    4.6053 H         1 UNK         0.0616 
    135 H135       36.1256   27.1922    3.9207 H         1 UNK         0.0616 
    136 H136       34.3969   23.9026    5.2632 H         1 UNK         0.0634 
    137 H137       35.1211   23.5817    3.7012 H         1 UNK         0.0634 
@<TRIPOS>BOND
     1    1    2 1    
     2    1   72 1    
     3    1   73 1    
     4    1   74 1    
     5    2    3 2    
     6    2    4 am   BACKBONE|DICT|INTERRES
     7    4    5 1    
     8    4   75 1    
     9    5    6 1    
    10    5   35 1    
    11    5   76 1    
    12    6    7 1    
    13    6   77 1    
    14    6   78 1    
    15    7    8 1    
    16    8    9 1    
    17    8   79 1    
    18    8   80 1    
    19    9   10 ar   
    20    9   14 ar   
    21   10   11 ar   
    22   10   81 1    
    23   11   12 ar   
    24   11   71 1    
    25   12   13 ar   
    26   12   82 1    
    27   13   14 ar   
    28   13   15 1    
    29   14   83 1    
    30   15   16 1    
    31   15   84 1    
    32   15   85 1    
    33   16   17 1    
    34   17   18 1    
    35   17   86 1    
    36   17   87 1    
    37   18   19 1    
    38   18   37 1    
    39   18   88 1    
    40   19   20 am   BACKBONE|DICT|INTERRES
    41   19   89 1    
    42   20   21 2    
    43   20   22 1    
    44   22   23 1    
    45   22   24 1    
    46   22   90 1    
    47   23   91 1    
    48   23   92 1    
    49   23   93 1    
    50   24   25 am   BACKBONE|DICT|INTERRES
    51   24   94 1    
    52   25   26 2    
    53   25   27 1    
    54   27   28 1    
    55   27   29 1    
    56   27   95 1    
    57   28   96 1    
    58   28   97 1    
    59   28   98 1    
    60   29   30 am   BACKBONE|DICT|INTERRES
    61   29   99 1    
    62   30   31 2    
    63   30   32 1    
    64   32   33 1    
    65   32   34 1    
    66   32  100 1    
    67   33  101 1    
    68   33  102 1    
    69   33  103 1    
    70   34   35 am   BACKBONE|DICT|INTERRES
    71   34  104 1    
    72   35   36 2    
    73   37   38 2    
    74   37   39 am   BACKBONE|DICT|INTERRES
    75   39   40 1    
    76   39  105 1    
    77   40   41 1    
    78   40   42 1    
    79   40  106 1    
    80   41  107 1    
    81   41  108 1    
    82   41  109 1    
    83   42   43 2    
    84   42   44 am   BACKBONE|DICT|INTERRES
    85   44   45 1    
    86   44  110 1    
    87   45   46 1    
    88   45   47 1    
    89   45  111 1    
    90   46  112 1    
    91   46  113 1    
    92   46  114 1    
    93   47   48 2    
    94   47   49 am   BACKBONE|DICT|INTERRES
    95   49   50 1    
    96   49  115 1    
    97   50   51 1    
    98   50   52 1    
    99   50  116 1    
   100   51  117 1    
   101   51  118 1    
   102   51  119 1    
   103   52   53 2    
   104   52   54 am   BACKBONE|DICT|INTERRES
   105   54   55 1    
   106   54  120 1    
   107   55   56 1    
   108   55   57 1    
   109   55  121 1    
   110   56  122 1    
   111   56  123 1    
   112   56  124 1    
   113   57   58 2    
   114   57   59 am   BACKBONE|DICT|INTERRES
   115   59   60 1    
   116   59  125 1    
   117   60   61 1    
   118   60   62 1    
   119   60  126 1    
   120   61  127 1    
   121   61  128 1    
   122   61  129 1    
   123   62   63 2    
   124   62   64 am   BACKBONE|DICT|INTERRES
   125   64   65 1    
   126   64  130 1    
   127   65   66 1    
   128   65   69 1    
   129   65  131 1    
   130   66   67 am   BACKBONE|DICT|INTERRES
   131   66   68 2    
   132   67  132 1    
   133   67  133 1    
   134   69   70 1    
   135   69  134 1    
   136   69  135 1    
   137   70   71 1    
   138   71  136 1    
   139   71  137 1    
@<TRIPOS>SUBSTRUCTURE
     1 UNK         1 GROUP             0       ****    0 ROOT    
