@<TRIPOS>MOLECULE
3R136
137   139    1
SMALL
USER_CHARGES


@<TRIPOS>ATOM
      1 CA         30.1303   18.7531    3.6069 C.3       0 UNK        -0.1979 
      2 C          29.3697   19.9823    3.1308 C.2       0 UNK         0.4864 
      3 O          28.1447   19.9282    3.0090 O.2       0 UNK        -0.5359 
      4 N          30.0914   21.0809    2.8655 N.am      1 UNK        -0.4318 
      5 CA         29.5785   22.3703    2.3783 C.3       1 UNK         0.0824 
      6 C6         28.6563   23.1055    3.3989 C.3       12 UNK        -0.0944 
      7 S7         29.4388   23.3108    5.0365 S.3       12 UNK        -0.2672 
      8 C8         29.8510   25.0875    5.0521 C.3       12 UNK         0.0333 
      9 C9         30.8265   25.4863    3.9503 C.ar      12 UNK        -0.0807 
     10 C10        32.0390   24.8069    3.7939 C.ar      12 UNK        -0.0894 
     11 C11        32.9377   25.1771    2.7899 C.ar      12 UNK        -0.0804 
     12 C12        32.6250   26.2494    1.9492 C.ar      12 UNK        -0.0824 
     13 C13        31.4243   26.9488    2.1048 C.ar      12 UNK        -0.0762 
     14 C14        30.5252   26.5569    3.1021 C.ar      12 UNK        -0.0782 
     15 C15        31.1386   28.1695    1.2410 C.3       12 UNK         0.0230 
     16 S16        30.2921   27.7351   -0.3077 S.3       12 UNK        -0.2608 
     17 C17        28.5471   27.6926    0.2187 C.3       12 UNK        -0.0989 
     18 CA         27.6928   28.7789   -0.4909 C.3       5 UNK         0.0716 
     19 N          26.2855   28.4015   -0.5784 N.am      5 UNK        -0.4135 
     20 C          25.7781   27.5093   -1.4308 C.2       4 UNK         0.5031 
     21 O          26.4466   26.8956   -2.2669 O.2       4 UNK        -0.5229 
     22 CA         24.2731   27.2422   -1.3400 C.3       4 UNK         0.0329 
     23 CB         23.4936   28.0317   -2.4055 C.3       4 UNK        -0.2001 
     24 N          24.0935   25.8110   -1.5400 N.am      4 UNK        -0.4303 
     25 C          23.1475   25.0480   -0.9844 C.2       3 UNK         0.5044 
     26 O          22.1880   25.4910   -0.3517 O.2       3 UNK        -0.5152 
     27 CA         23.3206   23.5234   -1.1336 C.3       3 UNK         0.0319 
     28 CB         22.5619   23.0136   -2.3696 C.3       3 UNK        -0.2001 
     29 N          24.7247   23.0942   -1.2116 N.am      3 UNK        -0.4354 
     30 C          25.6271   23.2519   -0.2321 C.2       2 UNK         0.4964 
     31 O          25.3698   23.7532    0.8668 O.2       2 UNK        -0.5047 
     32 CA         27.0595   22.7936   -0.5369 C.3       2 UNK         0.0288 
     33 CB         27.7220   23.6797   -1.6107 C.3       2 UNK        -0.2113 
     34 N          27.8238   22.8505    0.7052 N.am      2 UNK        -0.4145 
     35 C          28.9716   22.2148    0.9626 C.2       1 UNK         0.5006 
     36 O          29.5648   21.5271    0.1265 O.2       1 UNK        -0.5103 
     37 C          27.7532   30.1412    0.2204 C.2       5 UNK         0.5055 
     38 O          26.8613   30.4463    1.0187 O.2       5 UNK        -0.5220 
     39 N          28.7822   30.9406   -0.0852 N.am      6 UNK        -0.4450 
     40 CA         29.0004   32.2602    0.5086 C.3       6 UNK         0.0367 
     41 CB         29.9719   33.0637   -0.3721 C.3       6 UNK        -0.1929 
     42 C          29.5543   32.1281    1.9332 C.2       6 UNK         0.5070 
     43 O          30.5771   31.4684    2.1207 O.2       6 UNK        -0.5237 
     44 N          28.9093   32.7912    2.9025 N.am      7 UNK        -0.4739 
     45 CA         29.2822   32.7687    4.3243 C.3       7 UNK         0.0276 
     46 CB         28.2430   33.5548    5.1388 C.3       7 UNK        -0.1927 
     47 C          30.7005   33.2949    4.6091 C.2       7 UNK         0.5013 
     48 O          31.3588   32.8017    5.5241 O.2       7 UNK        -0.5193 
     49 N          31.1656   34.2461    3.7879 N.am      8 UNK        -0.4253 
     50 CA         32.5287   34.7831    3.8134 C.3       8 UNK         0.0242 
     51 CB         32.5849   36.0418    2.9320 C.3       8 UNK        -0.2000 
     52 C          33.6067   33.7722    3.3731 C.2       8 UNK         0.4948 
     53 O          34.7784   33.9803    3.6898 O.2       8 UNK        -0.5275 
     54 N          33.2070   32.7121    2.6567 N.am      9 UNK        -0.4246 
     55 CA         34.0806   31.6522    2.1524 C.3       9 UNK         0.0261 
     56 CB         33.8028   31.4703    0.6484 C.3       9 UNK        -0.1959 
     57 C          33.8843   30.3258    2.9099 C.2       9 UNK         0.5033 
     58 O          34.4379   29.3145    2.4759 O.2       9 UNK        -0.5390 
     59 N          33.0943   30.3274    3.9956 N.am      10 UNK        -0.4215 
     60 CA         32.7560   29.1392    4.7801 C.3       10 UNK         0.0240 
     61 CB         31.6694   29.4845    5.8093 C.3       10 UNK        -0.1982 
     62 C          33.9793   28.5070    5.4600 C.2       10 UNK         0.4970 
     63 O          34.7577   29.2183    6.0993 O.2       10 UNK        -0.4916 
     64 N          34.1042   27.1826    5.3220 N.am      11 UNK        -0.4279 
     65 CA         35.2007   26.3796    5.8855 C.3       11 UNK         0.1003 
     66 C          35.1088   26.1404    7.4212 C.2       11 UNK         0.5709 
     67 N          34.0025   26.4593    8.0834 N.am      11 UNK        -0.7358 
     68 O          36.0660   25.6624    8.0255 O.2       11 UNK        -0.4999 
     69 C69        35.3805   25.0389    5.1248 C.3       12 UNK        -0.0954 
     70 S70        35.6661   25.2689    3.3357 S.3       12 UNK        -0.2268 
     71 C71        34.2386   24.4099    2.6002 C.3       12 UNK         0.0203 
     72 H72        31.2020   18.9379    3.6783 H         1 UNK         0.0888 
     73 H73        29.7731   18.4493    4.5905 H         1 UNK         0.0888 
     74 H74        29.9744   17.9247    2.9162 H         1 UNK         0.0888 
     75 H75        31.0952   21.0372    2.9661 H         1 UNK         0.3017 
     76 H76        30.4578   22.9986    2.2317 H         1 UNK         0.0873 
     77 H77        28.3765   24.0927    3.0268 H         1 UNK         0.0745 
     78 H78        27.7240   22.5567    3.5429 H         1 UNK         0.0745 
     79 H79        30.2944   25.3351    6.0174 H         1 UNK         0.0705 
     80 H80        28.9257   25.6616    4.9828 H         1 UNK         0.0705 
     81 H81        32.2740   23.9786    4.4485 H         1 UNK         0.1334 
     82 H82        33.3274   26.5532    1.1846 H         1 UNK         0.1417 
     83 H83        29.6022   27.1033    3.2364 H         1 UNK         0.1562 
     84 H84        32.0759   28.6698    0.9941 H         1 UNK         0.0748 
     85 H85        30.5500   28.8989    1.7977 H         1 UNK         0.0748 
     86 H86        28.4568   27.7638    1.3033 H         1 UNK         0.0940 
     87 H87        28.1818   26.6966   -0.0320 H         1 UNK         0.0940 
     88 H88        28.0521   28.9196   -1.5132 H         1 UNK         0.0703 
     89 H89        25.6867   28.9081    0.0631 H         1 UNK         0.3081 
     90 H90        23.9203   27.5201   -0.3442 H         1 UNK         0.0719 
     91 H91        23.8248   27.7814   -3.4143 H         1 UNK         0.0809 
     92 H92        22.4242   27.8292   -2.3446 H         1 UNK         0.0809 
     93 H93        23.6291   29.1058   -2.2726 H         1 UNK         0.0809 
     94 H94        24.8632   25.3657   -2.0240 H         1 UNK         0.2990 
     95 H95        22.8818   23.0585   -0.2482 H         1 UNK         0.0690 
     96 H96        22.5990   21.9262   -2.4385 H         1 UNK         0.0788 
     97 H97        22.9710   23.4244   -3.2935 H         1 UNK         0.0788 
     98 H98        21.5093   23.2974   -2.3251 H         1 UNK         0.0788 
     99 H99        25.0186   22.6696   -2.0800 H         1 UNK         0.2993 
    100 H100       27.0193   21.7582   -0.8825 H         1 UNK         0.0949 
    101 H101       27.1573   23.6696   -2.5434 H         1 UNK         0.0767 
    102 H102       27.7947   24.7170   -1.2850 H         1 UNK         0.0767 
    103 H103       28.7294   23.3362   -1.8457 H         1 UNK         0.0767 
    104 H104       27.3475   23.3555    1.4432 H         1 UNK         0.3013 
    105 H105       29.5024   30.5954   -0.7038 H         1 UNK         0.3121 
    106 H106       28.0473   32.7930    0.5396 H         1 UNK         0.0774 
    107 H107       30.1445   34.0578    0.0427 H         1 UNK         0.0815 
    108 H108       30.9428   32.5745   -0.4578 H         1 UNK         0.0815 
    109 H109       29.5752   33.1989   -1.3784 H         1 UNK         0.0815 
    110 H110       28.0773   33.3122    2.6628 H         1 UNK         0.2987 
    111 H111       29.2549   31.7272    4.6514 H         1 UNK         0.0949 
    112 H112       28.1975   34.6015    4.8352 H         1 UNK         0.0806 
    113 H113       27.2458   33.1282    5.0283 H         1 UNK         0.0806 
    114 H114       28.4847   33.5345    6.2027 H         1 UNK         0.0806 
    115 H115       30.5507   34.5898    3.0645 H         1 UNK         0.3010 
    116 H116       32.7571   35.0728    4.8414 H         1 UNK         0.0829 
    117 H117       31.8834   36.8014    3.2776 H         1 UNK         0.0813 
    118 H118       33.5796   36.4897    2.9537 H         1 UNK         0.0813 
    119 H119       32.3525   35.8166    1.8903 H         1 UNK         0.0813 
    120 H120       32.2168   32.5772    2.4745 H         1 UNK         0.3038 
    121 H121       35.1290   31.9328    2.2714 H         1 UNK         0.0769 
    122 H122       34.4824   30.7395    0.2081 H         1 UNK         0.0811 
    123 H123       33.9379   32.4046    0.1035 H         1 UNK         0.0811 
    124 H124       32.7863   31.1192    0.4673 H         1 UNK         0.0811 
    125 H125       32.6992   31.2041    4.3072 H         1 UNK         0.3204 
    126 H126       32.3378   28.4130    4.0883 H         1 UNK         0.0748 
    127 H127       31.3773   28.6034    6.3820 H         1 UNK         0.0771 
    128 H128       32.0120   30.2389    6.5189 H         1 UNK         0.0771 
    129 H129       30.7714   29.8641    5.3220 H         1 UNK         0.0771 
    130 H130       33.4381   26.6780    4.7543 H         1 UNK         0.2980 
    131 H131       36.1189   26.9516    5.7387 H         1 UNK         0.0545 
    132 H132       33.9613   26.3025    9.0780 H         1 UNK         0.3459 
    133 H133       33.2136   26.8561    7.6008 H         1 UNK         0.3459 
    134 H134       36.2412   24.4940    5.5168 H         1 UNK         0.0616 
    135 H135       34.5187   24.3899    5.2848 H         1 UNK         0.0616 
    136 H136       34.4253   24.2774    1.5336 H         1 UNK         0.0634 
    137 H137       34.1621   23.4056    3.0199 H         1 UNK         0.0634 
@<TRIPOS>BOND
     1    1    2 1    
     2    1   72 1    
     3    1   73 1    
     4    1   74 1    
     5    2    3 2    
     6    2    4 am   BACKBONE|DICT|INTERRES
     7    4    5 1    
     8    4   75 1    
     9    5    6 1    
    10    5   35 1    
    11    5   76 1    
    12    6    7 1    
    13    6   77 1    
    14    6   78 1    
    15    7    8 1    
    16    8    9 1    
    17    8   79 1    
    18    8   80 1    
    19    9   10 ar   
    20    9   14 ar   
    21   10   11 ar   
    22   10   81 1    
    23   11   12 ar   
    24   11   71 1    
    25   12   13 ar   
    26   12   82 1    
    27   13   14 ar   
    28   13   15 1    
    29   14   83 1    
    30   15   16 1    
    31   15   84 1    
    32   15   85 1    
    33   16   17 1    
    34   17   18 1    
    35   17   86 1    
    36   17   87 1    
    37   18   19 1    
    38   18   37 1    
    39   18   88 1    
    40   19   20 am   BACKBONE|DICT|INTERRES
    41   19   89 1    
    42   20   21 2    
    43   20   22 1    
    44   22   23 1    
    45   22   24 1    
    46   22   90 1    
    47   23   91 1    
    48   23   92 1    
    49   23   93 1    
    50   24   25 am   BACKBONE|DICT|INTERRES
    51   24   94 1    
    52   25   26 2    
    53   25   27 1    
    54   27   28 1    
    55   27   29 1    
    56   27   95 1    
    57   28   96 1    
    58   28   97 1    
    59   28   98 1    
    60   29   30 am   BACKBONE|DICT|INTERRES
    61   29   99 1    
    62   30   31 2    
    63   30   32 1    
    64   32   33 1    
    65   32   34 1    
    66   32  100 1    
    67   33  101 1    
    68   33  102 1    
    69   33  103 1    
    70   34   35 am   BACKBONE|DICT|INTERRES
    71   34  104 1    
    72   35   36 2    
    73   37   38 2    
    74   37   39 am   BACKBONE|DICT|INTERRES
    75   39   40 1    
    76   39  105 1    
    77   40   41 1    
    78   40   42 1    
    79   40  106 1    
    80   41  107 1    
    81   41  108 1    
    82   41  109 1    
    83   42   43 2    
    84   42   44 am   BACKBONE|DICT|INTERRES
    85   44   45 1    
    86   44  110 1    
    87   45   46 1    
    88   45   47 1    
    89   45  111 1    
    90   46  112 1    
    91   46  113 1    
    92   46  114 1    
    93   47   48 2    
    94   47   49 am   BACKBONE|DICT|INTERRES
    95   49   50 1    
    96   49  115 1    
    97   50   51 1    
    98   50   52 1    
    99   50  116 1    
   100   51  117 1    
   101   51  118 1    
   102   51  119 1    
   103   52   53 2    
   104   52   54 am   BACKBONE|DICT|INTERRES
   105   54   55 1    
   106   54  120 1    
   107   55   56 1    
   108   55   57 1    
   109   55  121 1    
   110   56  122 1    
   111   56  123 1    
   112   56  124 1    
   113   57   58 2    
   114   57   59 am   BACKBONE|DICT|INTERRES
   115   59   60 1    
   116   59  125 1    
   117   60   61 1    
   118   60   62 1    
   119   60  126 1    
   120   61  127 1    
   121   61  128 1    
   122   61  129 1    
   123   62   63 2    
   124   62   64 am   BACKBONE|DICT|INTERRES
   125   64   65 1    
   126   64  130 1    
   127   65   66 1    
   128   65   69 1    
   129   65  131 1    
   130   66   67 am   BACKBONE|DICT|INTERRES
   131   66   68 2    
   132   67  132 1    
   133   67  133 1    
   134   69   70 1    
   135   69  134 1    
   136   69  135 1    
   137   70   71 1    
   138   71  136 1    
   139   71  137 1    
@<TRIPOS>SUBSTRUCTURE
     1 UNK         1 GROUP             0       ****    0 ROOT    
