@<TRIPOS>MOLECULE
3R136
137   139    1
SMALL
USER_CHARGES


@<TRIPOS>ATOM
      1 CA         28.8144   22.5722    5.6029 C.3       0 UNK        -0.1979 
      2 C          28.0000   21.9237    4.4926 C.2       0 UNK         0.4864 
      3 O          27.0682   21.1685    4.7754 O.2       0 UNK        -0.5359 
      4 N          28.3520   22.2088    3.2337 N.am      1 UNK        -0.4318 
      5 CA         27.6338   21.7712    2.0335 C.3       1 UNK         0.0824 
      6 C6         28.5730   21.7269    0.7969 C.3       12 UNK        -0.0944 
      7 S7         29.4098   23.3125    0.4466 S.3       12 UNK        -0.2672 
      8 C8         31.1113   22.9291    0.9621 C.3       12 UNK         0.0333 
      9 C9         31.9210   24.1986    1.1712 C.ar      12 UNK        -0.0807 
     10 C10        32.2474   24.6226    2.4629 C.ar      12 UNK        -0.0894 
     11 C11        33.0026   25.7824    2.6582 C.ar      12 UNK        -0.0804 
     12 C12        33.4206   26.5276    1.5498 C.ar      12 UNK        -0.0824 
     13 C13        33.1099   26.1069    0.2525 C.ar      12 UNK        -0.0762 
     14 C14        32.3600   24.9405    0.0710 C.ar      12 UNK        -0.0782 
     15 C15        33.6179   26.8838   -0.9562 C.3       12 UNK         0.0230 
     16 S16        32.8281   28.5141   -1.1514 S.3       12 UNK        -0.2608 
     17 C17        31.0701   28.0782   -1.3835 C.3       12 UNK        -0.0989 
     18 CA         30.1235   28.9539   -0.5267 C.3       5 UNK         0.0716 
     19 N          28.7398   28.8576   -1.0007 N.am      5 UNK        -0.4135 
     20 C          27.6859   29.5117   -0.4910 C.2       4 UNK         0.5031 
     21 O          27.7703   30.3434    0.4129 O.2       4 UNK        -0.5229 
     22 CA         26.2954   29.1479   -1.0412 C.3       4 UNK         0.0329 
     23 CB         25.8353   30.2025   -2.0598 C.3       4 UNK        -0.2001 
     24 N          26.1978   27.8113   -1.6446 N.am      4 UNK        -0.4303 
     25 C          26.4586   26.6530   -1.0211 C.2       3 UNK         0.5044 
     26 O          26.9023   26.5731    0.1267 O.2       3 UNK        -0.5152 
     27 CA         26.2545   25.3780   -1.8547 C.3       3 UNK         0.0319 
     28 CB         27.5567   25.0011   -2.5802 C.3       3 UNK        -0.2001 
     29 N          25.8219   24.2527   -1.0251 N.am      3 UNK        -0.4354 
     30 C          24.6046   24.1369   -0.4734 C.2       2 UNK         0.4964 
     31 O          23.6964   24.9493   -0.6557 O.2       2 UNK        -0.5047 
     32 CA         24.3279   22.8999    0.4051 C.3       2 UNK         0.0288 
     33 CB         23.4121   21.9097   -0.3349 C.3       2 UNK        -0.2113 
     34 N          25.5378   22.1928    0.8371 N.am      2 UNK        -0.4145 
     35 C          26.3761   22.6350    1.7847 C.2       1 UNK         0.5006 
     36 O          26.1902   23.6750    2.4223 O.2       1 UNK        -0.5103 
     37 C          30.2614   28.6643    0.9857 C.2       5 UNK         0.5055 
     38 O          31.0144   29.3666    1.6589 O.2       5 UNK        -0.5220 
     39 N          29.4720   27.7141    1.5125 N.am      6 UNK        -0.4450 
     40 CA         29.4309   27.3758    2.9389 C.3       6 UNK         0.0367 
     41 CB         28.6260   26.0820    3.1328 C.3       6 UNK        -0.1929 
     42 C          28.8858   28.4966    3.8470 C.2       6 UNK         0.5070 
     43 O          29.0837   28.4192    5.0591 O.2       6 UNK        -0.5237 
     44 N          28.2223   29.5067    3.2681 N.am      7 UNK        -0.4739 
     45 CA         27.7913   30.7230    3.9559 C.3       7 UNK         0.0276 
     46 CB         26.3228   31.0148    3.6050 C.3       7 UNK        -0.1927 
     47 C          28.6860   31.9131    3.5764 C.2       7 UNK         0.5013 
     48 O          29.0859   32.6700    4.4611 O.2       7 UNK        -0.5193 
     49 N          28.9758   32.0683    2.2758 N.am      8 UNK        -0.4253 
     50 CA         29.7252   33.1952    1.7126 C.3       8 UNK         0.0242 
     51 CB         29.5714   33.1941    0.1830 C.3       8 UNK        -0.2000 
     52 C          31.2128   33.2253    2.1026 C.2       8 UNK         0.4948 
     53 O          31.7633   34.3142    2.2718 O.2       8 UNK        -0.5275 
     54 N          31.8358   32.0498    2.2374 N.am      9 UNK        -0.4246 
     55 CA         33.2336   31.8734    2.6220 C.3       9 UNK         0.0261 
     56 CB         34.0918   31.6738    1.3579 C.3       9 UNK        -0.1959 
     57 C          33.3005   30.6878    3.5903 C.2       9 UNK         0.5033 
     58 O          33.9404   29.6805    3.2886 O.2       9 UNK        -0.5390 
     59 N          32.5939   30.8282    4.7212 N.am      10 UNK        -0.4215 
     60 CA         32.2266   29.8030    5.7090 C.3       10 UNK         0.0240 
     61 CB         31.2064   30.4231    6.6836 C.3       10 UNK        -0.1982 
     62 C          33.3645   29.0681    6.4588 C.2       10 UNK         0.4970 
     63 O          33.1434   28.6182    7.5843 O.2       10 UNK        -0.4916 
     64 N          34.5340   28.9124    5.8277 N.am      11 UNK        -0.4279 
     65 CA         35.6586   28.0615    6.2536 C.3       11 UNK         0.1003 
     66 C          36.3065   28.4465    7.6207 C.2       11 UNK         0.5709 
     67 N          36.1481   29.6752    8.0988 N.am      11 UNK        -0.7358 
     68 O          36.9958   27.6403    8.2418 O.2       11 UNK        -0.4999 
     69 C69        35.3074   26.5476    6.1280 C.3       12 UNK        -0.0954 
     70 S70        35.1442   26.0104    4.3896 S.3       12 UNK        -0.2268 
     71 C71        33.3661   26.2333    4.0647 C.3       12 UNK         0.0203 
     72 H72        29.6122   23.2022    5.2096 H         1 UNK         0.0888 
     73 H73        28.1702   23.1920    6.2261 H         1 UNK         0.0888 
     74 H74        29.2662   21.8070    6.2336 H         1 UNK         0.0888 
     75 H75        29.0924   22.8718    3.0608 H         1 UNK         0.3017 
     76 H76        27.2794   20.7530    2.2095 H         1 UNK         0.0873 
     77 H77        28.0305   21.4216   -0.0992 H         1 UNK         0.0745 
     78 H78        29.3250   20.9503    0.9451 H         1 UNK         0.0745 
     79 H79        31.0944   22.3382    1.8792 H         1 UNK         0.0705 
     80 H80        31.5869   22.3064    0.2028 H         1 UNK         0.0705 
     81 H81        31.9195   24.0469    3.3174 H         1 UNK         0.1334 
     82 H82        33.9977   27.4309    1.6990 H         1 UNK         0.1417 
     83 H83        32.1153   24.6041   -0.9275 H         1 UNK         0.1562 
     84 H84        33.4749   26.3114   -1.8741 H         1 UNK         0.0748 
     85 H85        34.6944   27.0289   -0.8556 H         1 UNK         0.0748 
     86 H86        30.9009   27.0191   -1.1847 H         1 UNK         0.0940 
     87 H87        30.8505   28.2192   -2.4430 H         1 UNK         0.0940 
     88 H88        30.4145   29.9956   -0.6734 H         1 UNK         0.0703 
     89 H89        28.5636   28.1961   -1.7413 H         1 UNK         0.3081 
     90 H90        25.6068   29.1693   -0.1939 H         1 UNK         0.0719 
     91 H91        24.8062   30.0290   -2.3752 H         1 UNK         0.0809 
     92 H92        25.8738   31.2044   -1.6291 H         1 UNK         0.0809 
     93 H93        26.4651   30.2068   -2.9504 H         1 UNK         0.0809 
     94 H94        25.8582   27.7768   -2.5956 H         1 UNK         0.2990 
     95 H95        25.4810   25.5640   -2.6031 H         1 UNK         0.0690 
     96 H96        28.3791   24.8455   -1.8814 H         1 UNK         0.0788 
     97 H97        27.8627   25.7883   -3.2703 H         1 UNK         0.0788 
     98 H98        27.4370   24.0893   -3.1656 H         1 UNK         0.0788 
     99 H99        26.5268   23.5728   -0.7839 H         1 UNK         0.2993 
    100 H100       23.8005   23.2519    1.2947 H         1 UNK         0.0949 
    101 H101       23.8856   21.5170   -1.2357 H         1 UNK         0.0767 
    102 H102       23.1438   21.0654    0.3007 H         1 UNK         0.0767 
    103 H103       22.4813   22.3905   -0.6396 H         1 UNK         0.0767 
    104 H104       25.7460   21.3262    0.3616 H         1 UNK         0.3013 
    105 H105       28.8136   27.2249    0.9153 H         1 UNK         0.3121 
    106 H106       30.4574   27.1855    3.2583 H         1 UNK         0.0774 
    107 H107       27.5954   26.1918    2.7926 H         1 UNK         0.0815 
    108 H108       28.5940   25.7900    4.1832 H         1 UNK         0.0815 
    109 H109       29.0728   25.2561    2.5830 H         1 UNK         0.0815 
    110 H110       28.1108   29.4974    2.2608 H         1 UNK         0.2987 
    111 H111       27.8577   30.5936    5.0386 H         1 UNK         0.0949 
    112 H112       26.1784   31.1562    2.5332 H         1 UNK         0.0806 
    113 H113       25.6725   30.2002    3.9241 H         1 UNK         0.0806 
    114 H114       25.9756   31.9208    4.1037 H         1 UNK         0.0806 
    115 H115       28.5747   31.4141    1.6059 H         1 UNK         0.3010 
    116 H116       29.2721   34.1123    2.0951 H         1 UNK         0.0829 
    117 H117       28.5229   33.2473   -0.1110 H         1 UNK         0.0813 
    118 H118       30.0770   34.0527   -0.2611 H         1 UNK         0.0813 
    119 H119       29.9986   32.2969   -0.2643 H         1 UNK         0.0813 
    120 H120       31.3237   31.1819    2.0815 H         1 UNK         0.3038 
    121 H121       33.5995   32.7514    3.1586 H         1 UNK         0.0769 
    122 H122       33.7676   30.8009    0.7893 H         1 UNK         0.0811 
    123 H123       35.1409   31.5257    1.6165 H         1 UNK         0.0811 
    124 H124       34.0369   32.5411    0.7002 H         1 UNK         0.0811 
    125 H125       32.1366   31.7196    4.8511 H         1 UNK         0.3204 
    126 H126       31.7062   29.0242    5.1502 H         1 UNK         0.0748 
    127 H127       31.6579   31.2044    7.2960 H         1 UNK         0.0771 
    128 H128       30.3605   30.8573    6.1509 H         1 UNK         0.0771 
    129 H129       30.7935   29.6719    7.3584 H         1 UNK         0.0771 
    130 H130       34.5817   29.2589    4.8708 H         1 UNK         0.2980 
    131 H131       36.4533   28.2645    5.5351 H         1 UNK         0.0545 
    132 H132       36.5776   29.9245    8.9756 H         1 UNK         0.3459 
    133 H133       35.5888   30.3468    7.5981 H         1 UNK         0.3459 
    134 H134       36.0970   25.9293    6.5575 H         1 UNK         0.0616 
    135 H135       34.4013   26.3011    6.6833 H         1 UNK         0.0616 
    136 H136       32.7892   25.6863    4.8118 H         1 UNK         0.0634 
    137 H137       33.0977   27.2823    4.1682 H         1 UNK         0.0634 
@<TRIPOS>BOND
     1    1    2 1    
     2    1   72 1    
     3    1   73 1    
     4    1   74 1    
     5    2    3 2    
     6    2    4 am   BACKBONE|DICT|INTERRES
     7    4    5 1    
     8    4   75 1    
     9    5    6 1    
    10    5   35 1    
    11    5   76 1    
    12    6    7 1    
    13    6   77 1    
    14    6   78 1    
    15    7    8 1    
    16    8    9 1    
    17    8   79 1    
    18    8   80 1    
    19    9   10 ar   
    20    9   14 ar   
    21   10   11 ar   
    22   10   81 1    
    23   11   12 ar   
    24   11   71 1    
    25   12   13 ar   
    26   12   82 1    
    27   13   14 ar   
    28   13   15 1    
    29   14   83 1    
    30   15   16 1    
    31   15   84 1    
    32   15   85 1    
    33   16   17 1    
    34   17   18 1    
    35   17   86 1    
    36   17   87 1    
    37   18   19 1    
    38   18   37 1    
    39   18   88 1    
    40   19   20 am   BACKBONE|DICT|INTERRES
    41   19   89 1    
    42   20   21 2    
    43   20   22 1    
    44   22   23 1    
    45   22   24 1    
    46   22   90 1    
    47   23   91 1    
    48   23   92 1    
    49   23   93 1    
    50   24   25 am   BACKBONE|DICT|INTERRES
    51   24   94 1    
    52   25   26 2    
    53   25   27 1    
    54   27   28 1    
    55   27   29 1    
    56   27   95 1    
    57   28   96 1    
    58   28   97 1    
    59   28   98 1    
    60   29   30 am   BACKBONE|DICT|INTERRES
    61   29   99 1    
    62   30   31 2    
    63   30   32 1    
    64   32   33 1    
    65   32   34 1    
    66   32  100 1    
    67   33  101 1    
    68   33  102 1    
    69   33  103 1    
    70   34   35 am   BACKBONE|DICT|INTERRES
    71   34  104 1    
    72   35   36 2    
    73   37   38 2    
    74   37   39 am   BACKBONE|DICT|INTERRES
    75   39   40 1    
    76   39  105 1    
    77   40   41 1    
    78   40   42 1    
    79   40  106 1    
    80   41  107 1    
    81   41  108 1    
    82   41  109 1    
    83   42   43 2    
    84   42   44 am   BACKBONE|DICT|INTERRES
    85   44   45 1    
    86   44  110 1    
    87   45   46 1    
    88   45   47 1    
    89   45  111 1    
    90   46  112 1    
    91   46  113 1    
    92   46  114 1    
    93   47   48 2    
    94   47   49 am   BACKBONE|DICT|INTERRES
    95   49   50 1    
    96   49  115 1    
    97   50   51 1    
    98   50   52 1    
    99   50  116 1    
   100   51  117 1    
   101   51  118 1    
   102   51  119 1    
   103   52   53 2    
   104   52   54 am   BACKBONE|DICT|INTERRES
   105   54   55 1    
   106   54  120 1    
   107   55   56 1    
   108   55   57 1    
   109   55  121 1    
   110   56  122 1    
   111   56  123 1    
   112   56  124 1    
   113   57   58 2    
   114   57   59 am   BACKBONE|DICT|INTERRES
   115   59   60 1    
   116   59  125 1    
   117   60   61 1    
   118   60   62 1    
   119   60  126 1    
   120   61  127 1    
   121   61  128 1    
   122   61  129 1    
   123   62   63 2    
   124   62   64 am   BACKBONE|DICT|INTERRES
   125   64   65 1    
   126   64  130 1    
   127   65   66 1    
   128   65   69 1    
   129   65  131 1    
   130   66   67 am   BACKBONE|DICT|INTERRES
   131   66   68 2    
   132   67  132 1    
   133   67  133 1    
   134   69   70 1    
   135   69  134 1    
   136   69  135 1    
   137   70   71 1    
   138   71  136 1    
   139   71  137 1    
@<TRIPOS>SUBSTRUCTURE
     1 UNK         1 GROUP             0       ****    0 ROOT    
