@<TRIPOS>MOLECULE
3R136
137   139    1
SMALL
USER_CHARGES


@<TRIPOS>ATOM
      1 CA         26.0716   21.2811   -1.3838 C.3       0 UNK        -0.1979 
      2 C          26.8252   21.8743   -0.2030 C.2       0 UNK         0.4864 
      3 O          26.5020   21.5616    0.9441 O.2       0 UNK        -0.5359 
      4 N          27.8213   22.7283   -0.4813 N.am      1 UNK        -0.4318 
      5 CA         28.6819   23.4420    0.4725 C.3       1 UNK         0.0824 
      6 C6         29.5604   22.5145    1.3579 C.3       12 UNK        -0.0944 
      7 S7         30.7625   21.5766    0.3563 S.3       12 UNK        -0.2672 
      8 C8         32.3217   21.8396    1.2754 C.3       12 UNK         0.0333 
      9 C9         32.7983   23.2910    1.3648 C.ar      12 UNK        -0.0807 
     10 C10        33.5793   23.6786    2.4579 C.ar      12 UNK        -0.0894 
     11 C11        34.0573   24.9874    2.5718 C.ar      12 UNK        -0.0804 
     12 C12        33.7327   25.9219    1.5842 C.ar      12 UNK        -0.0824 
     13 C13        32.9590   25.5555    0.4769 C.ar      12 UNK        -0.0762 
     14 C14        32.5134   24.2317    0.3675 C.ar      12 UNK        -0.0782 
     15 C15        32.6622   26.6028   -0.5967 C.3       12 UNK         0.0230 
     16 S16        31.0983   26.3362   -1.5073 S.3       12 UNK        -0.2608 
     17 C17        30.6009   28.0583   -1.8755 C.3       12 UNK        -0.0989 
     18 CA         29.4548   28.5786   -0.9625 C.3       5 UNK         0.0716 
     19 N          28.2302   27.7779   -1.0790 N.am      5 UNK        -0.4135 
     20 C          27.4292   27.8434   -2.1529 C.2       4 UNK         0.5031 
     21 O          27.5720   28.6585   -3.0661 O.2       4 UNK        -0.5229 
     22 CA         26.2951   26.8123   -2.2635 C.3       4 UNK         0.0329 
     23 CB         26.8315   25.5015   -2.8621 C.3       4 UNK        -0.2001 
     24 N          25.6281   26.5244   -0.9962 N.am      4 UNK        -0.4303 
     25 C          24.8353   27.3748   -0.3274 C.2       3 UNK         0.5044 
     26 O          24.5969   28.5283   -0.6838 O.2       3 UNK        -0.5152 
     27 CA         24.2133   26.8337    0.9650 C.3       3 UNK         0.0319 
     28 CB         22.9777   25.9719    0.6265 C.3       3 UNK        -0.2001 
     29 N          25.2365   26.0811    1.6905 N.am      3 UNK        -0.4354 
     30 C          25.1267   25.3962    2.8302 C.2       2 UNK         0.4964 
     31 O          24.0789   25.2736    3.4662 O.2       2 UNK        -0.5047 
     32 CA         26.4315   24.7566    3.3482 C.3       2 UNK         0.0288 
     33 CB         26.2040   23.8509    4.5731 C.3       2 UNK        -0.2113 
     34 N          27.1701   23.9911    2.3338 N.am      2 UNK        -0.4145 
     35 C          27.8848   24.4652    1.3032 C.2       1 UNK         0.5006 
     36 O          27.9289   25.6589    0.9874 O.2       1 UNK        -0.5103 
     37 C          29.9474   28.7629    0.4826 C.2       5 UNK         0.5055 
     38 O          30.4969   29.8221    0.7845 O.2       5 UNK        -0.5220 
     39 N          29.8010   27.7453    1.3440 N.am      6 UNK        -0.4450 
     40 CA         30.4841   27.6603    2.6411 C.3       6 UNK         0.0367 
     41 CB         30.2602   26.2691    3.2471 C.3       6 UNK        -0.1929 
     42 C          30.1008   28.7641    3.6382 C.2       6 UNK         0.5070 
     43 O          30.9479   29.1859    4.4265 O.2       6 UNK        -0.5237 
     44 N          28.8511   29.2384    3.5574 N.am      7 UNK        -0.4739 
     45 CA         28.3403   30.3626    4.3442 C.3       7 UNK         0.0276 
     46 CB         26.8061   30.3897    4.2525 C.3       7 UNK        -0.1927 
     47 C          28.9336   31.7156    3.9110 C.2       7 UNK         0.5013 
     48 O          29.1437   32.5788    4.7627 O.2       7 UNK        -0.5193 
     49 N          29.2058   31.8716    2.6072 N.am      8 UNK        -0.4253 
     50 CA         29.8358   33.0609    2.0277 C.3       8 UNK         0.0242 
     51 CB         29.4696   33.1685    0.5381 C.3       8 UNK        -0.2000 
     52 C          31.3601   33.0388    2.2160 C.2       8 UNK         0.4948 
     53 O          31.9502   34.0780    2.5120 O.2       8 UNK        -0.5275 
     54 N          31.9630   31.8502    2.0694 N.am      9 UNK        -0.4246 
     55 CA         33.3854   31.5865    2.3021 C.3       9 UNK         0.0261 
     56 CB         33.7362   30.2049    1.7237 C.3       9 UNK        -0.1959 
     57 C          33.7934   31.6590    3.7860 C.2       9 UNK         0.5033 
     58 O          34.9845   31.8001    4.0658 O.2       9 UNK        -0.5390 
     59 N          32.8112   31.5462    4.6940 N.am      10 UNK        -0.4215 
     60 CA         32.9362   31.4906    6.1540 C.3       10 UNK         0.0240 
     61 CB         33.4929   32.8142    6.7216 C.3       10 UNK        -0.1982 
     62 C          33.7227   30.2467    6.6054 C.2       10 UNK         0.4970 
     63 O          34.6824   30.3593    7.3710 O.2       10 UNK        -0.4916 
     64 N          33.3019   29.0836    6.0926 N.am      11 UNK        -0.4279 
     65 CA         33.8594   27.7619    6.4039 C.3       11 UNK         0.1003 
     66 C          33.7293   27.3989    7.9115 C.2       11 UNK         0.5709 
     67 N          34.7625   26.8193    8.5076 N.am      11 UNK        -0.7358 
     68 O          32.6888   27.6114    8.5323 O.2       11 UNK        -0.4999 
     69 C69        33.2100   26.6868    5.4955 C.3       12 UNK        -0.0954 
     70 S70        34.2060   25.1674    5.3586 S.3       12 UNK        -0.2268 
     71 C71        34.9816   25.3690    3.7233 C.3       12 UNK         0.0203 
     72 H72        25.0133   21.5321   -1.3172 H         1 UNK         0.0888 
     73 H73        26.4482   21.6507   -2.3375 H         1 UNK         0.0888 
     74 H74        26.1654   20.1955   -1.3800 H         1 UNK         0.0888 
     75 H75        28.0321   22.9132   -1.4517 H         1 UNK         0.3017 
     76 H76        29.3632   24.0371   -0.1382 H         1 UNK         0.0873 
     77 H77        30.1021   23.1003    2.1026 H         1 UNK         0.0745 
     78 H78        28.9551   21.8029    1.9209 H         1 UNK         0.0745 
     79 H79        33.1056   21.2512    0.7971 H         1 UNK         0.0705 
     80 H80        32.1955   21.4270    2.2777 H         1 UNK         0.0705 
     81 H81        33.8342   22.9542    3.2198 H         1 UNK         0.1334 
     82 H82        34.1068   26.9334    1.6641 H         1 UNK         0.1417 
     83 H83        31.9457   23.9291   -0.5001 H         1 UNK         0.1562 
     84 H84        33.4859   26.6216   -1.3113 H         1 UNK         0.0748 
     85 H85        32.6376   27.5878   -0.1285 H         1 UNK         0.0748 
     86 H86        31.4673   28.7209   -1.8240 H         1 UNK         0.0940 
     87 H87        30.2847   28.0939   -2.9189 H         1 UNK         0.0940 
     88 H88        29.2081   29.5888   -1.2981 H         1 UNK         0.0703 
     89 H89        28.0551   27.0762   -0.3690 H         1 UNK         0.3081 
     90 H90        25.5459   27.2162   -2.9480 H         1 UNK         0.0719 
     91 H91        27.6051   25.0592   -2.2341 H         1 UNK         0.0809 
     92 H92        26.0374   24.7663   -2.9939 H         1 UNK         0.0809 
     93 H93        27.2746   25.6766   -3.8437 H         1 UNK         0.0809 
     94 H94        25.7309   25.5872   -0.6377 H         1 UNK         0.2990 
     95 H95        23.9066   27.6811    1.5809 H         1 UNK         0.0690 
     96 H96        23.2545   25.0473    0.1188 H         1 UNK         0.0788 
     97 H97        22.2924   26.5120   -0.0286 H         1 UNK         0.0788 
     98 H98        22.4122   25.7068    1.5191 H         1 UNK         0.0788 
     99 H99        26.1736   26.1373    1.2997 H         1 UNK         0.2993 
    100 H100       27.0562   25.5886    3.6731 H         1 UNK         0.0949 
    101 H101       25.5726   22.9957    4.3280 H         1 UNK         0.0767 
    102 H102       27.1474   23.4705    4.9655 H         1 UNK         0.0767 
    103 H103       25.7176   24.3966    5.3829 H         1 UNK         0.0767 
    104 H104       27.0795   22.9823    2.3868 H         1 UNK         0.3013 
    105 H105       29.3004   26.9116    1.0543 H         1 UNK         0.3121 
    106 H106       31.5524   27.7648    2.4483 H         1 UNK         0.0774 
    107 H107       30.7740   26.1610    4.1988 H         1 UNK         0.0815 
    108 H108       29.2073   26.0818    3.4383 H         1 UNK         0.0815 
    109 H109       30.6371   25.4856    2.5901 H         1 UNK         0.0815 
    110 H110       28.2282   28.8276    2.8777 H         1 UNK         0.2987 
    111 H111       28.6184   30.2017    5.3886 H         1 UNK         0.0949 
    112 H112       26.4627   30.5320    3.2270 H         1 UNK         0.0806 
    113 H113       26.3697   29.4639    4.6279 H         1 UNK         0.0806 
    114 H114       26.3949   31.2049    4.8497 H         1 UNK         0.0806 
    115 H115       29.0691   31.0845    1.9876 H         1 UNK         0.3010 
    116 H116       29.4484   33.9473    2.5353 H         1 UNK         0.0829 
    117 H117       29.9049   34.0656    0.0956 H         1 UNK         0.0813 
    118 H118       29.8327   32.3150   -0.0352 H         1 UNK         0.0813 
    119 H119       28.3902   33.2309    0.3992 H         1 UNK         0.0813 
    120 H120       31.4036   31.0656    1.7373 H         1 UNK         0.3038 
    121 H121       33.9609   32.3429    1.7645 H         1 UNK         0.0769 
    122 H122       34.8048   30.0044    1.8118 H         1 UNK         0.0811 
    123 H123       33.4787   30.1376    0.6665 H         1 UNK         0.0811 
    124 H124       33.2114   29.4076    2.2494 H         1 UNK         0.0811 
    125 H125       31.8824   31.3646    4.3371 H         1 UNK         0.3204 
    126 H126       31.9232   31.3690    6.5413 H         1 UNK         0.0748 
    127 H127       33.4744   32.8075    7.8120 H         1 UNK         0.0771 
    128 H128       34.5252   32.9881    6.4166 H         1 UNK         0.0771 
    129 H129       32.8981   33.6662    6.3922 H         1 UNK         0.0771 
    130 H130       32.4799   29.0923    5.4932 H         1 UNK         0.2980 
    131 H131       34.9213   27.8208    6.1567 H         1 UNK         0.0545 
    132 H132       34.6900   26.5673    9.4807 H         1 UNK         0.3459 
    133 H133       35.6096   26.6195    7.9991 H         1 UNK         0.3459 
    134 H134       32.2221   26.4203    5.8730 H         1 UNK         0.0616 
    135 H135       33.0546   27.0814    4.4902 H         1 UNK         0.0616 
    136 H136       35.3419   26.3938    3.6197 H         1 UNK         0.0634 
    137 H137       35.8653   24.7311    3.6815 H         1 UNK         0.0634 
@<TRIPOS>BOND
     1    1    2 1    
     2    1   72 1    
     3    1   73 1    
     4    1   74 1    
     5    2    3 2    
     6    2    4 am   BACKBONE|DICT|INTERRES
     7    4    5 1    
     8    4   75 1    
     9    5    6 1    
    10    5   35 1    
    11    5   76 1    
    12    6    7 1    
    13    6   77 1    
    14    6   78 1    
    15    7    8 1    
    16    8    9 1    
    17    8   79 1    
    18    8   80 1    
    19    9   10 ar   
    20    9   14 ar   
    21   10   11 ar   
    22   10   81 1    
    23   11   12 ar   
    24   11   71 1    
    25   12   13 ar   
    26   12   82 1    
    27   13   14 ar   
    28   13   15 1    
    29   14   83 1    
    30   15   16 1    
    31   15   84 1    
    32   15   85 1    
    33   16   17 1    
    34   17   18 1    
    35   17   86 1    
    36   17   87 1    
    37   18   19 1    
    38   18   37 1    
    39   18   88 1    
    40   19   20 am   BACKBONE|DICT|INTERRES
    41   19   89 1    
    42   20   21 2    
    43   20   22 1    
    44   22   23 1    
    45   22   24 1    
    46   22   90 1    
    47   23   91 1    
    48   23   92 1    
    49   23   93 1    
    50   24   25 am   BACKBONE|DICT|INTERRES
    51   24   94 1    
    52   25   26 2    
    53   25   27 1    
    54   27   28 1    
    55   27   29 1    
    56   27   95 1    
    57   28   96 1    
    58   28   97 1    
    59   28   98 1    
    60   29   30 am   BACKBONE|DICT|INTERRES
    61   29   99 1    
    62   30   31 2    
    63   30   32 1    
    64   32   33 1    
    65   32   34 1    
    66   32  100 1    
    67   33  101 1    
    68   33  102 1    
    69   33  103 1    
    70   34   35 am   BACKBONE|DICT|INTERRES
    71   34  104 1    
    72   35   36 2    
    73   37   38 2    
    74   37   39 am   BACKBONE|DICT|INTERRES
    75   39   40 1    
    76   39  105 1    
    77   40   41 1    
    78   40   42 1    
    79   40  106 1    
    80   41  107 1    
    81   41  108 1    
    82   41  109 1    
    83   42   43 2    
    84   42   44 am   BACKBONE|DICT|INTERRES
    85   44   45 1    
    86   44  110 1    
    87   45   46 1    
    88   45   47 1    
    89   45  111 1    
    90   46  112 1    
    91   46  113 1    
    92   46  114 1    
    93   47   48 2    
    94   47   49 am   BACKBONE|DICT|INTERRES
    95   49   50 1    
    96   49  115 1    
    97   50   51 1    
    98   50   52 1    
    99   50  116 1    
   100   51  117 1    
   101   51  118 1    
   102   51  119 1    
   103   52   53 2    
   104   52   54 am   BACKBONE|DICT|INTERRES
   105   54   55 1    
   106   54  120 1    
   107   55   56 1    
   108   55   57 1    
   109   55  121 1    
   110   56  122 1    
   111   56  123 1    
   112   56  124 1    
   113   57   58 2    
   114   57   59 am   BACKBONE|DICT|INTERRES
   115   59   60 1    
   116   59  125 1    
   117   60   61 1    
   118   60   62 1    
   119   60  126 1    
   120   61  127 1    
   121   61  128 1    
   122   61  129 1    
   123   62   63 2    
   124   62   64 am   BACKBONE|DICT|INTERRES
   125   64   65 1    
   126   64  130 1    
   127   65   66 1    
   128   65   69 1    
   129   65  131 1    
   130   66   67 am   BACKBONE|DICT|INTERRES
   131   66   68 2    
   132   67  132 1    
   133   67  133 1    
   134   69   70 1    
   135   69  134 1    
   136   69  135 1    
   137   70   71 1    
   138   71  136 1    
   139   71  137 1    
@<TRIPOS>SUBSTRUCTURE
     1 UNK         1 GROUP             0       ****    0 ROOT    
