@<TRIPOS>MOLECULE
3R136
137   139    1
SMALL
USER_CHARGES


@<TRIPOS>ATOM
      1 CA         28.2614   21.6042   -3.6261 C.3       0 UNK        -0.1979 
      2 C          28.3641   22.8034   -2.6966 C.2       0 UNK         0.4864 
      3 O          27.3779   23.5178   -2.5079 O.2       0 UNK        -0.5359 
      4 N          29.5440   23.0209   -2.0962 N.am      1 UNK        -0.4318 
      5 CA         29.8499   24.1393   -1.1922 C.3       1 UNK         0.0824 
      6 C6         31.3513   24.2291   -0.8068 C.3       12 UNK        -0.0944 
      7 S7         32.2186   22.6406   -0.5199 S.3       12 UNK        -0.2672 
      8 C8         31.8272   22.1793    1.2052 C.3       12 UNK         0.0333 
      9 C9         31.9433   23.3167    2.2143 C.ar      12 UNK        -0.0807 
     10 C10        33.0775   24.1371    2.2616 C.ar      12 UNK        -0.0894 
     11 C11        33.1435   25.2032    3.1649 C.ar      12 UNK        -0.0804 
     12 C12        32.0827   25.4236    4.0454 C.ar      12 UNK        -0.0824 
     13 C13        30.9456   24.6129    4.0078 C.ar      12 UNK        -0.0762 
     14 C14        30.8896   23.5518    3.1028 C.ar      12 UNK        -0.0782 
     15 C15        29.7499   24.9369    4.8932 C.3       12 UNK         0.0230 
     16 S16        28.4881   25.9013    3.9915 S.3       12 UNK        -0.2608 
     17 C17        29.5180   27.2378    3.2964 C.3       12 UNK        -0.0989 
     18 CA         28.7592   28.3902    2.6081 C.3       5 UNK         0.0716 
     19 N          27.9827   27.9445    1.4517 N.am      5 UNK        -0.4135 
     20 C          27.5037   28.7633    0.5063 C.2       4 UNK         0.5031 
     21 O          27.6549   29.9876    0.5356 O.2       4 UNK        -0.5229 
     22 CA         26.7797   28.1362   -0.6959 C.3       4 UNK         0.0329 
     23 CB         27.7280   28.0752   -1.9048 C.3       4 UNK        -0.2001 
     24 N          26.2769   26.7829   -0.4375 N.am      4 UNK        -0.4303 
     25 C          24.9793   26.4451   -0.4055 C.2       3 UNK         0.5044 
     26 O          24.0605   27.2630   -0.4728 O.2       3 UNK        -0.5152 
     27 CA         24.6223   24.9476   -0.3266 C.3       3 UNK         0.0319 
     28 CB         24.0844   24.4568   -1.6812 C.3       3 UNK        -0.2001 
     29 N          25.7552   24.1053    0.0609 N.am      3 UNK        -0.4354 
     30 C          26.0889   23.8337    1.3313 C.2       2 UNK         0.4964 
     31 O          25.4268   24.2028    2.3014 O.2       2 UNK        -0.5047 
     32 CA         27.3810   23.0283    1.5764 C.3       2 UNK         0.0288 
     33 CB         27.0568   21.5520    1.8543 C.3       2 UNK        -0.2113 
     34 N          28.3659   23.1050    0.4920 N.am      2 UNK        -0.4145 
     35 C          28.9328   24.2347    0.0434 C.2       1 UNK         0.5006 
     36 O          28.6965   25.3443    0.5199 O.2       1 UNK        -0.5103 
     37 C          27.9601   29.2684    3.5914 C.2       5 UNK         0.5055 
     38 O          26.7273   29.2768    3.5721 O.2       5 UNK        -0.5220 
     39 N          28.7156   30.0442    4.3791 N.am      6 UNK        -0.4450 
     40 CA         28.3398   31.2086    5.1895 C.3       6 UNK         0.0367 
     41 CB         27.0884   30.9769    6.0595 C.3       6 UNK        -0.1929 
     42 C          28.2327   32.4916    4.3460 C.2       6 UNK         0.5070 
     43 O          28.5097   33.5694    4.8727 O.2       6 UNK        -0.5237 
     44 N          27.8838   32.3642    3.0581 N.am      7 UNK        -0.4739 
     45 CA         27.9217   33.4428    2.0737 C.3       7 UNK         0.0276 
     46 CB         26.6751   33.3741    1.1741 C.3       7 UNK        -0.1927 
     47 C          29.2162   33.3690    1.2507 C.2       7 UNK         0.5013 
     48 O          29.9840   34.3317    1.2520 O.2       7 UNK        -0.5193 
     49 N          29.4359   32.2413    0.5573 N.am      8 UNK        -0.4253 
     50 CA         30.5528   32.0652   -0.3777 C.3       8 UNK         0.0242 
     51 CB         30.1975   30.9674   -1.3926 C.3       8 UNK        -0.2000 
     52 C          31.8962   31.7405    0.2959 C.2       8 UNK         0.4948 
     53 O          32.9386   32.1146   -0.2436 O.2       8 UNK        -0.5275 
     54 N          31.8621   31.0374    1.4331 N.am      9 UNK        -0.4246 
     55 CA         33.0299   30.5627    2.1744 C.3       9 UNK         0.0261 
     56 CB         33.6417   29.3362    1.4698 C.3       9 UNK        -0.1959 
     57 C          32.5965   30.2062    3.5994 C.2       9 UNK         0.5033 
     58 O          31.4064   29.9714    3.8236 O.2       9 UNK        -0.5390 
     59 N          33.5591   30.1645    4.5277 N.am      10 UNK        -0.4215 
     60 CA         33.3224   29.8644    5.9420 C.3       10 UNK         0.0240 
     61 CB         34.0299   30.9122    6.8202 C.3       10 UNK        -0.1982 
     62 C          33.7696   28.4422    6.3105 C.2       10 UNK         0.4970 
     63 O          32.9522   27.6751    6.8183 O.2       10 UNK        -0.4916 
     64 N          35.0541   28.1276    6.0744 N.am      11 UNK        -0.4279 
     65 CA         35.7355   26.8910    6.5164 C.3       11 UNK         0.1003 
     66 C          35.8135   26.7184    8.0684 C.2       11 UNK         0.5709 
     67 N          35.6876   27.7800    8.8569 N.am      11 UNK        -0.7358 
     68 O          36.0292   25.6186    8.5728 O.2       11 UNK        -0.4999 
     69 C69        35.2328   25.6112    5.7812 C.3       12 UNK        -0.0954 
     70 S70        35.7697   25.5416    4.0395 S.3       12 UNK        -0.2268 
     71 C71        34.3200   26.1672    3.1422 C.3       12 UNK         0.0203 
     72 H72        27.9930   21.9316   -4.6301 H         1 UNK         0.0888 
     73 H73        29.2004   21.0543   -3.6877 H         1 UNK         0.0888 
     74 H74        27.4897   20.9210   -3.2726 H         1 UNK         0.0888 
     75 H75        30.3173   22.3935   -2.2715 H         1 UNK         0.3017 
     76 H76        29.6249   25.0416   -1.7655 H         1 UNK         0.0873 
     77 H77        31.8807   24.7033   -1.6346 H         1 UNK         0.0745 
     78 H78        31.5105   24.9060    0.0346 H         1 UNK         0.0745 
     79 H79        32.4996   21.3762    1.5092 H         1 UNK         0.0705 
     80 H80        30.8235   21.7529    1.2210 H         1 UNK         0.0705 
     81 H81        33.8931   23.9675    1.5719 H         1 UNK         0.1334 
     82 H82        32.1200   26.2589    4.7307 H         1 UNK         0.1417 
     83 H83        30.0085   22.9273    3.0718 H         1 UNK         0.1562 
     84 H84        30.0687   25.4985    5.7730 H         1 UNK         0.0748 
     85 H85        29.2991   24.0152    5.2639 H         1 UNK         0.0748 
     86 H86        30.1887   26.7940    2.5590 H         1 UNK         0.0940 
     87 H87        30.1623   27.6258    4.0869 H         1 UNK         0.0940 
     88 H88        29.5285   29.0429    2.1904 H         1 UNK         0.0703 
     89 H89        27.8983   26.9408    1.3365 H         1 UNK         0.3081 
     90 H90        25.9563   28.8062   -0.9513 H         1 UNK         0.0719 
     91 H91        28.6190   27.4834   -1.6908 H         1 UNK         0.0809 
     92 H92        27.2356   27.6378   -2.7735 H         1 UNK         0.0809 
     93 H93        28.0571   29.0735   -2.1928 H         1 UNK         0.0809 
     94 H94        26.9742   26.0572   -0.3196 H         1 UNK         0.2990 
     95 H95        23.8215   24.8411    0.4085 H         1 UNK         0.0690 
     96 H96        23.7887   23.4086   -1.6349 H         1 UNK         0.0788 
     97 H97        24.8282   24.5609   -2.4724 H         1 UNK         0.0788 
     98 H98        23.2054   25.0277   -1.9836 H         1 UNK         0.0788 
     99 H99        26.3469   23.7709   -0.6936 H         1 UNK         0.2993 
    100 H100       27.8415   23.4511    2.4697 H         1 UNK         0.0949 
    101 H101       26.3473   21.4563    2.6776 H         1 UNK         0.0767 
    102 H102       26.6140   21.0660    0.9839 H         1 UNK         0.0767 
    103 H103       27.9509   20.9943    2.1342 H         1 UNK         0.0767 
    104 H104       28.5885   22.2427    0.0168 H         1 UNK         0.3013 
    105 H105       29.7283   29.9479    4.2668 H         1 UNK         0.3121 
    106 H106       29.1803   31.3593    5.8690 H         1 UNK         0.0774 
    107 H107       26.9657   31.7882    6.7778 H         1 UNK         0.0815 
    108 H108       26.1758   30.9391    5.4644 H         1 UNK         0.0815 
    109 H109       27.1628   30.0487    6.6258 H         1 UNK         0.0815 
    110 H110       27.6447   31.4440    2.7134 H         1 UNK         0.2987 
    111 H111       27.9071   34.4119    2.5781 H         1 UNK         0.0949 
    112 H112       26.6986   34.1582    0.4160 H         1 UNK         0.0806 
    113 H113       26.5903   32.4203    0.6534 H         1 UNK         0.0806 
    114 H114       25.7640   33.5151    1.7557 H         1 UNK         0.0806 
    115 H115       28.7466   31.4919    0.5905 H         1 UNK         0.3010 
    116 H116       30.6845   32.9976   -0.9316 H         1 UNK         0.0829 
    117 H117       29.2752   31.2035   -1.9234 H         1 UNK         0.0813 
    118 H118       30.9832   30.8584   -2.1415 H         1 UNK         0.0813 
    119 H119       30.0723   29.9976   -0.9098 H         1 UNK         0.0813 
    120 H120       30.9744   30.8130    1.8617 H         1 UNK         0.3038 
    121 H121       33.7667   31.3671    2.2260 H         1 UNK         0.0769 
    122 H122       32.9395   28.5018    1.4334 H         1 UNK         0.0811 
    123 H123       34.5380   28.9930    1.9870 H         1 UNK         0.0811 
    124 H124       33.9369   29.5669    0.4463 H         1 UNK         0.0811 
    125 H125       34.5102   30.3603    4.2498 H         1 UNK         0.3204 
    126 H126       32.2549   29.9313    6.1651 H         1 UNK         0.0748 
    127 H127       33.8784   30.7014    7.8799 H         1 UNK         0.0771 
    128 H128       35.1052   30.9453    6.6418 H         1 UNK         0.0771 
    129 H129       33.6331   31.9103    6.6330 H         1 UNK         0.0771 
    130 H130       35.6585   28.8230    5.6642 H         1 UNK         0.2980 
    131 H131       36.7795   27.0274    6.2326 H         1 UNK         0.0545 
    132 H132       35.5364   28.6958    8.4680 H         1 UNK         0.3459 
    133 H133       35.7526   27.6595    9.8554 H         1 UNK         0.3459 
    134 H134       34.1523   25.5053    5.8610 H         1 UNK         0.0616 
    135 H135       35.6448   24.7118    6.2410 H         1 UNK         0.0616 
    136 H136       34.6090   26.3559    2.1074 H         1 UNK         0.0634 
    137 H137       34.0308   27.1332    3.5562 H         1 UNK         0.0634 
@<TRIPOS>BOND
     1    1    2 1    
     2    1   72 1    
     3    1   73 1    
     4    1   74 1    
     5    2    3 2    
     6    2    4 am   BACKBONE|DICT|INTERRES
     7    4    5 1    
     8    4   75 1    
     9    5    6 1    
    10    5   35 1    
    11    5   76 1    
    12    6    7 1    
    13    6   77 1    
    14    6   78 1    
    15    7    8 1    
    16    8    9 1    
    17    8   79 1    
    18    8   80 1    
    19    9   10 ar   
    20    9   14 ar   
    21   10   11 ar   
    22   10   81 1    
    23   11   12 ar   
    24   11   71 1    
    25   12   13 ar   
    26   12   82 1    
    27   13   14 ar   
    28   13   15 1    
    29   14   83 1    
    30   15   16 1    
    31   15   84 1    
    32   15   85 1    
    33   16   17 1    
    34   17   18 1    
    35   17   86 1    
    36   17   87 1    
    37   18   19 1    
    38   18   37 1    
    39   18   88 1    
    40   19   20 am   BACKBONE|DICT|INTERRES
    41   19   89 1    
    42   20   21 2    
    43   20   22 1    
    44   22   23 1    
    45   22   24 1    
    46   22   90 1    
    47   23   91 1    
    48   23   92 1    
    49   23   93 1    
    50   24   25 am   BACKBONE|DICT|INTERRES
    51   24   94 1    
    52   25   26 2    
    53   25   27 1    
    54   27   28 1    
    55   27   29 1    
    56   27   95 1    
    57   28   96 1    
    58   28   97 1    
    59   28   98 1    
    60   29   30 am   BACKBONE|DICT|INTERRES
    61   29   99 1    
    62   30   31 2    
    63   30   32 1    
    64   32   33 1    
    65   32   34 1    
    66   32  100 1    
    67   33  101 1    
    68   33  102 1    
    69   33  103 1    
    70   34   35 am   BACKBONE|DICT|INTERRES
    71   34  104 1    
    72   35   36 2    
    73   37   38 2    
    74   37   39 am   BACKBONE|DICT|INTERRES
    75   39   40 1    
    76   39  105 1    
    77   40   41 1    
    78   40   42 1    
    79   40  106 1    
    80   41  107 1    
    81   41  108 1    
    82   41  109 1    
    83   42   43 2    
    84   42   44 am   BACKBONE|DICT|INTERRES
    85   44   45 1    
    86   44  110 1    
    87   45   46 1    
    88   45   47 1    
    89   45  111 1    
    90   46  112 1    
    91   46  113 1    
    92   46  114 1    
    93   47   48 2    
    94   47   49 am   BACKBONE|DICT|INTERRES
    95   49   50 1    
    96   49  115 1    
    97   50   51 1    
    98   50   52 1    
    99   50  116 1    
   100   51  117 1    
   101   51  118 1    
   102   51  119 1    
   103   52   53 2    
   104   52   54 am   BACKBONE|DICT|INTERRES
   105   54   55 1    
   106   54  120 1    
   107   55   56 1    
   108   55   57 1    
   109   55  121 1    
   110   56  122 1    
   111   56  123 1    
   112   56  124 1    
   113   57   58 2    
   114   57   59 am   BACKBONE|DICT|INTERRES
   115   59   60 1    
   116   59  125 1    
   117   60   61 1    
   118   60   62 1    
   119   60  126 1    
   120   61  127 1    
   121   61  128 1    
   122   61  129 1    
   123   62   63 2    
   124   62   64 am   BACKBONE|DICT|INTERRES
   125   64   65 1    
   126   64  130 1    
   127   65   66 1    
   128   65   69 1    
   129   65  131 1    
   130   66   67 am   BACKBONE|DICT|INTERRES
   131   66   68 2    
   132   67  132 1    
   133   67  133 1    
   134   69   70 1    
   135   69  134 1    
   136   69  135 1    
   137   70   71 1    
   138   71  136 1    
   139   71  137 1    
@<TRIPOS>SUBSTRUCTURE
     1 UNK         1 GROUP             0       ****    0 ROOT    
