@<TRIPOS>MOLECULE
3R136
137   139    1
SMALL
USER_CHARGES


@<TRIPOS>ATOM
      1 CA         31.2172   21.2774    4.3459 C.3       0 UNK        -0.1979 
      2 C          30.0673   20.7132    3.5234 C.2       0 UNK         0.4864 
      3 O          29.3792   19.7963    3.9751 O.2       0 UNK        -0.5359 
      4 N          29.8620   21.2521    2.3162 N.am      1 UNK        -0.4318 
      5 CA         28.7466   20.9333    1.4194 C.3       1 UNK         0.0824 
      6 C6         29.0653   21.3480   -0.0435 C.3       12 UNK        -0.0944 
      7 S7         29.5777   23.0952   -0.2187 S.3       12 UNK        -0.2672 
      8 C8         31.3491   22.9056   -0.5879 C.3       12 UNK         0.0333 
      9 C9         32.1246   24.1586   -0.2151 C.ar      12 UNK        -0.0807 
     10 C10        32.9201   24.1774    0.9343 C.ar      12 UNK        -0.0894 
     11 C11        33.6425   25.3242    1.2855 C.ar      12 UNK        -0.0804 
     12 C12        33.5664   26.4540    0.4633 C.ar      12 UNK        -0.0824 
     13 C13        32.7855   26.4437   -0.6973 C.ar      12 UNK        -0.0762 
     14 C14        32.0651   25.2924   -1.0292 C.ar      12 UNK        -0.0782 
     15 C15        32.7653   27.6502   -1.6271 C.3       12 UNK         0.0230 
     16 S16        31.1118   28.3976   -1.7792 S.3       12 UNK        -0.2608 
     17 C17        30.9963   29.3756   -0.2457 C.3       12 UNK        -0.0989 
     18 CA         29.5771   29.3002    0.3753 C.3       5 UNK         0.0716 
     19 N          29.2205   27.9495    0.8224 N.am      5 UNK        -0.4135 
     20 C          29.7055   27.3140    1.8985 C.2       4 UNK         0.5031 
     21 O          30.6037   27.7718    2.6063 O.2       4 UNK        -0.5229 
     22 CA         29.0829   25.9561    2.2793 C.3       4 UNK         0.0329 
     23 CB         28.7101   25.9110    3.7763 C.3       4 UNK        -0.2001 
     24 N          27.9352   25.5251    1.4671 N.am      4 UNK        -0.4303 
     25 C          26.7343   26.1148    1.3389 C.2       3 UNK         0.5044 
     26 O          26.4468   27.2177    1.8047 O.2       3 UNK        -0.5152 
     27 CA         25.6761   25.3179    0.5700 C.3       3 UNK         0.0319 
     28 CB         25.9771   25.3193   -0.9423 C.3       3 UNK        -0.2001 
     29 N          25.6367   23.9606    1.1088 N.am      3 UNK        -0.4354 
     30 C          24.7283   23.0112    0.8694 C.2       2 UNK         0.4964 
     31 O          23.7640   23.1608    0.1168 O.2       2 UNK        -0.5047 
     32 CA         24.9537   21.6631    1.5931 C.3       2 UNK         0.0288 
     33 CB         23.9102   20.5984    1.2036 C.3       2 UNK        -0.2113 
     34 N          26.2975   21.1161    1.3606 N.am      2 UNK        -0.4145 
     35 C          27.4308   21.5723    1.9137 C.2       1 UNK         0.5006 
     36 O          27.4564   22.5035    2.7248 O.2       1 UNK        -0.5103 
     37 C          29.3587   30.3279    1.5081 C.2       5 UNK         0.5055 
     38 O          30.2721   31.0851    1.8412 O.2       5 UNK        -0.5220 
     39 N          28.1596   30.3034    2.1111 N.am      6 UNK        -0.4450 
     40 CA         27.7716   31.0936    3.2882 C.3       6 UNK         0.0367 
     41 CB         26.3358   30.7211    3.6895 C.3       6 UNK        -0.1929 
     42 C          27.9074   32.6193    3.1281 C.2       6 UNK         0.5070 
     43 O          28.1139   33.3149    4.1221 O.2       6 UNK        -0.5237 
     44 N          27.8071   33.1092    1.8865 N.am      7 UNK        -0.4739 
     45 CA         28.0010   34.5146    1.5236 C.3       7 UNK         0.0276 
     46 CB         27.2572   34.7851    0.2043 C.3       7 UNK        -0.1927 
     47 C          29.4826   34.9269    1.4012 C.2       7 UNK         0.5013 
     48 O          29.7475   36.1190    1.2359 O.2       7 UNK        -0.5193 
     49 N          30.4132   33.9635    1.4485 N.am      8 UNK        -0.4253 
     50 CA         31.8448   34.1707    1.2517 C.3       8 UNK         0.0242 
     51 CB         32.2216   33.7963   -0.1975 C.3       8 UNK        -0.2000 
     52 C          32.6287   33.3976    2.3216 C.2       8 UNK         0.4948 
     53 O          32.7999   33.9149    3.4260 O.2       8 UNK        -0.5275 
     54 N          33.1157   32.1983    1.9715 N.am      9 UNK        -0.4246 
     55 CA         33.9862   31.3575    2.7978 C.3       9 UNK         0.0261 
     56 CB         34.4855   30.1651    1.9652 C.3       9 UNK        -0.1959 
     57 C          33.3462   30.8586    4.1046 C.2       9 UNK         0.5033 
     58 O          34.0540   30.7843    5.1101 O.2       9 UNK        -0.5390 
     59 N          32.0456   30.5266    4.0605 N.am      10 UNK        -0.4215 
     60 CA         31.2216   29.9994    5.1571 C.3       10 UNK         0.0240 
     61 CB         30.8797   31.1259    6.1536 C.3       10 UNK        -0.1982 
     62 C          31.8421   28.7607    5.8349 C.2       10 UNK         0.4970 
     63 O          32.2687   28.8313    6.9898 O.2       10 UNK        -0.4916 
     64 N          31.9045   27.6623    5.0732 N.am      11 UNK        -0.4279 
     65 CA         32.4676   26.3585    5.4573 C.3       11 UNK         0.1003 
     66 C          31.8789   25.7655    6.7690 C.2       11 UNK         0.5709 
     67 N          32.6880   25.0604    7.5480 N.am      11 UNK        -0.7358 
     68 O          30.6908   25.8963    7.0580 O.2       11 UNK        -0.4999 
     69 C69        32.3431   25.3433    4.2853 C.3       12 UNK        -0.0954 
     70 S70        33.8875   24.4371    3.9648 S.3       12 UNK        -0.2268 
     71 C71        34.5387   25.3569    2.5255 C.3       12 UNK         0.0203 
     72 H72        30.8340   21.7619    5.2437 H         1 UNK         0.0888 
     73 H73        31.8911   20.4772    4.6504 H         1 UNK         0.0888 
     74 H74        31.7969   22.0115    3.7864 H         1 UNK         0.0888 
     75 H75        30.4282   22.0324    2.0183 H         1 UNK         0.3017 
     76 H76        28.6014   19.8508    1.4380 H         1 UNK         0.0873 
     77 H77        28.2079   21.1765   -0.6968 H         1 UNK         0.0745 
     78 H78        29.8500   20.7005   -0.4377 H         1 UNK         0.0745 
     79 H79        31.7515   22.0459   -0.0498 H         1 UNK         0.0705 
     80 H80        31.4752   22.6899   -1.6499 H         1 UNK         0.0705 
     81 H81        32.9819   23.2936    1.5535 H         1 UNK         0.1334 
     82 H82        34.1367   27.3368    0.7158 H         1 UNK         0.1417 
     83 H83        31.4606   25.2779   -1.9262 H         1 UNK         0.1562 
     84 H84        33.0926   27.3303   -2.6173 H         1 UNK         0.0748 
     85 H85        33.4781   28.4109   -1.3044 H         1 UNK         0.0748 
     86 H86        31.2574   30.4041   -0.4989 H         1 UNK         0.0940 
     87 H87        31.7422   29.0333    0.4718 H         1 UNK         0.0940 
     88 H88        28.8602   29.5677   -0.4025 H         1 UNK         0.0703 
     89 H89        28.4808   27.4951    0.3090 H         1 UNK         0.3081 
     90 H90        29.8667   25.2162    2.1099 H         1 UNK         0.0719 
     91 H91        29.5661   26.1335    4.4114 H         1 UNK         0.0809 
     92 H92        27.9350   26.6370    4.0230 H         1 UNK         0.0809 
     93 H93        28.3488   24.9232    4.0628 H         1 UNK         0.0809 
     94 H94        28.0827   24.6524    0.9756 H         1 UNK         0.2990 
     95 H95        24.7055   25.7874    0.7425 H         1 UNK         0.0690 
     96 H96        25.1754   24.8463   -1.5092 H         1 UNK         0.0788 
     97 H97        26.9028   24.7911   -1.1740 H         1 UNK         0.0788 
     98 H98        26.0762   26.3378   -1.3200 H         1 UNK         0.0788 
     99 H99        26.3636   23.7319    1.7845 H         1 UNK         0.2993 
    100 H100       24.8420   21.8581    2.6622 H         1 UNK         0.0949 
    101 H101       24.0549   19.6761    1.7668 H         1 UNK         0.0767 
    102 H102       22.8979   20.9467    1.4139 H         1 UNK         0.0767 
    103 H103       23.9583   20.3552    0.1413 H         1 UNK         0.0767 
    104 H104       26.3588   20.3756    0.6765 H         1 UNK         0.3013 
    105 H105       27.4858   29.6170    1.7971 H         1 UNK         0.3121 
    106 H106       28.4316   30.8052    4.1061 H         1 UNK         0.0774 
    107 H107       26.0267   31.2625    4.5847 H         1 UNK         0.0815 
    108 H108       25.6219   30.9604    2.9004 H         1 UNK         0.0815 
    109 H109       26.2483   29.6567    3.9102 H         1 UNK         0.0815 
    110 H110       27.6306   32.4627    1.1313 H         1 UNK         0.2987 
    111 H111       27.5570   35.1425    2.2995 H         1 UNK         0.0949 
    112 H112       27.6639   34.1942   -0.6174 H         1 UNK         0.0806 
    113 H113       26.1952   34.5546    0.2922 H         1 UNK         0.0806 
    114 H114       27.3344   35.8352   -0.0812 H         1 UNK         0.0806 
    115 H115       30.1318   33.0065    1.6451 H         1 UNK         0.3010 
    116 H116       32.0970   35.2231    1.3992 H         1 UNK         0.0829 
    117 H117       31.7561   34.4813   -0.9065 H         1 UNK         0.0813 
    118 H118       33.2993   33.8590   -0.3554 H         1 UNK         0.0813 
    119 H119       31.9002   32.7888   -0.4615 H         1 UNK         0.0813 
    120 H120       32.8936   31.8511    1.0508 H         1 UNK         0.3038 
    121 H121       34.8521   31.9643    3.0711 H         1 UNK         0.0769 
    122 H122       35.1904   29.5600    2.5372 H         1 UNK         0.0811 
    123 H123       35.0005   30.4932    1.0621 H         1 UNK         0.0811 
    124 H124       33.6652   29.5117    1.6707 H         1 UNK         0.0811 
    125 H125       31.5577   30.6507    3.1757 H         1 UNK         0.3204 
    126 H126       30.2894   29.6606    4.7056 H         1 UNK         0.0748 
    127 H127       30.2202   30.7629    6.9427 H         1 UNK         0.0771 
    128 H128       31.7735   31.5276    6.6323 H         1 UNK         0.0771 
    129 H129       30.3687   31.9507    5.6559 H         1 UNK         0.0771 
    130 H130       31.5024   27.7108    4.1375 H         1 UNK         0.2980 
    131 H131       33.5239   26.5633    5.6416 H         1 UNK         0.0545 
    132 H132       33.6555   24.9215    7.3012 H         1 UNK         0.3459 
    133 H133       32.3220   24.6527    8.3939 H         1 UNK         0.3459 
    134 H134       32.0593   25.8453    3.3632 H         1 UNK         0.0616 
    135 H135       31.5485   24.6134    4.4530 H         1 UNK         0.0616 
    136 H136       35.5114   24.9415    2.2601 H         1 UNK         0.0634 
    137 H137       34.7156   26.3879    2.8366 H         1 UNK         0.0634 
@<TRIPOS>BOND
     1    1    2 1    
     2    1   72 1    
     3    1   73 1    
     4    1   74 1    
     5    2    3 2    
     6    2    4 am   BACKBONE|DICT|INTERRES
     7    4    5 1    
     8    4   75 1    
     9    5    6 1    
    10    5   35 1    
    11    5   76 1    
    12    6    7 1    
    13    6   77 1    
    14    6   78 1    
    15    7    8 1    
    16    8    9 1    
    17    8   79 1    
    18    8   80 1    
    19    9   10 ar   
    20    9   14 ar   
    21   10   11 ar   
    22   10   81 1    
    23   11   12 ar   
    24   11   71 1    
    25   12   13 ar   
    26   12   82 1    
    27   13   14 ar   
    28   13   15 1    
    29   14   83 1    
    30   15   16 1    
    31   15   84 1    
    32   15   85 1    
    33   16   17 1    
    34   17   18 1    
    35   17   86 1    
    36   17   87 1    
    37   18   19 1    
    38   18   37 1    
    39   18   88 1    
    40   19   20 am   BACKBONE|DICT|INTERRES
    41   19   89 1    
    42   20   21 2    
    43   20   22 1    
    44   22   23 1    
    45   22   24 1    
    46   22   90 1    
    47   23   91 1    
    48   23   92 1    
    49   23   93 1    
    50   24   25 am   BACKBONE|DICT|INTERRES
    51   24   94 1    
    52   25   26 2    
    53   25   27 1    
    54   27   28 1    
    55   27   29 1    
    56   27   95 1    
    57   28   96 1    
    58   28   97 1    
    59   28   98 1    
    60   29   30 am   BACKBONE|DICT|INTERRES
    61   29   99 1    
    62   30   31 2    
    63   30   32 1    
    64   32   33 1    
    65   32   34 1    
    66   32  100 1    
    67   33  101 1    
    68   33  102 1    
    69   33  103 1    
    70   34   35 am   BACKBONE|DICT|INTERRES
    71   34  104 1    
    72   35   36 2    
    73   37   38 2    
    74   37   39 am   BACKBONE|DICT|INTERRES
    75   39   40 1    
    76   39  105 1    
    77   40   41 1    
    78   40   42 1    
    79   40  106 1    
    80   41  107 1    
    81   41  108 1    
    82   41  109 1    
    83   42   43 2    
    84   42   44 am   BACKBONE|DICT|INTERRES
    85   44   45 1    
    86   44  110 1    
    87   45   46 1    
    88   45   47 1    
    89   45  111 1    
    90   46  112 1    
    91   46  113 1    
    92   46  114 1    
    93   47   48 2    
    94   47   49 am   BACKBONE|DICT|INTERRES
    95   49   50 1    
    96   49  115 1    
    97   50   51 1    
    98   50   52 1    
    99   50  116 1    
   100   51  117 1    
   101   51  118 1    
   102   51  119 1    
   103   52   53 2    
   104   52   54 am   BACKBONE|DICT|INTERRES
   105   54   55 1    
   106   54  120 1    
   107   55   56 1    
   108   55   57 1    
   109   55  121 1    
   110   56  122 1    
   111   56  123 1    
   112   56  124 1    
   113   57   58 2    
   114   57   59 am   BACKBONE|DICT|INTERRES
   115   59   60 1    
   116   59  125 1    
   117   60   61 1    
   118   60   62 1    
   119   60  126 1    
   120   61  127 1    
   121   61  128 1    
   122   61  129 1    
   123   62   63 2    
   124   62   64 am   BACKBONE|DICT|INTERRES
   125   64   65 1    
   126   64  130 1    
   127   65   66 1    
   128   65   69 1    
   129   65  131 1    
   130   66   67 am   BACKBONE|DICT|INTERRES
   131   66   68 2    
   132   67  132 1    
   133   67  133 1    
   134   69   70 1    
   135   69  134 1    
   136   69  135 1    
   137   70   71 1    
   138   71  136 1    
   139   71  137 1    
@<TRIPOS>SUBSTRUCTURE
     1 UNK         1 GROUP             0       ****    0 ROOT    
