@<TRIPOS>MOLECULE
3R136
137   139    1
SMALL
USER_CHARGES


@<TRIPOS>ATOM
      1 CA         30.1073   27.2541    1.8726 C.3       0 UNK        -0.1979 
      2 C          30.4721   26.1380    0.9114 C.2       0 UNK         0.4864 
      3 O          30.9758   26.4106   -0.1788 O.2       0 UNK        -0.5359 
      4 N          30.2146   24.8873    1.3140 N.am      1 UNK        -0.4318 
      5 CA         30.5373   23.6428    0.6081 C.3       1 UNK         0.0824 
      6 C6         32.0664   23.3529    0.5466 C.3       12 UNK        -0.0944 
      7 S7         32.9745   23.2864    2.1345 S.3       12 UNK        -0.2672 
      8 C8         31.8283   22.5326    3.3445 C.3       12 UNK         0.0333 
      9 C9         30.9402   23.5410    4.0725 C.ar      12 UNK        -0.0807 
     10 C10        31.4590   24.7594    4.5225 C.ar      12 UNK        -0.0894 
     11 C11        30.6643   25.6775    5.2182 C.ar      12 UNK        -0.0804 
     12 C12        29.3330   25.3427    5.4879 C.ar      12 UNK        -0.0824 
     13 C13        28.7994   24.1228    5.0598 C.ar      12 UNK        -0.0762 
     14 C14        29.6049   23.2312    4.3441 C.ar      12 UNK        -0.0782 
     15 C15        27.3685   23.7396    5.4090 C.3       12 UNK         0.0230 
     16 S16        26.1719   24.3958    4.2057 S.3       12 UNK        -0.2608 
     17 C17        25.7883   26.0456    4.8922 C.3       12 UNK        -0.0989 
     18 CA         26.3491   27.2016    4.0298 C.3       5 UNK         0.0716 
     19 N          25.9171   27.1051    2.6293 N.am      5 UNK        -0.4135 
     20 C          26.3708   27.8759    1.6358 C.2       4 UNK         0.5031 
     21 O          27.1499   28.8177    1.7965 O.2       4 UNK        -0.5229 
     22 CA         25.8501   27.5735    0.2325 C.3       4 UNK         0.0329 
     23 CB         24.6438   28.4643   -0.1110 C.3       4 UNK        -0.2001 
     24 N          26.9410   27.8235   -0.7024 N.am      4 UNK        -0.4303 
     25 C          27.1451   27.1610   -1.8448 C.2       3 UNK         0.5044 
     26 O          26.3604   26.3190   -2.2847 O.2       3 UNK        -0.5152 
     27 CA         28.4343   27.4769   -2.6290 C.3       3 UNK         0.0319 
     28 CB         29.2146   28.7009   -2.1029 C.3       3 UNK        -0.2001 
     29 N          29.3103   26.3042   -2.6167 N.am      3 UNK        -0.4354 
     30 C          29.2244   25.2743   -3.4735 C.2       2 UNK         0.4964 
     31 O          28.4808   25.2609   -4.4557 O.2       2 UNK        -0.5047 
     32 CA         30.1210   24.0477   -3.2161 C.3       2 UNK         0.0288 
     33 CB         31.3318   24.0568   -4.1643 C.3       2 UNK        -0.2113 
     34 N          30.6004   23.9479   -1.8367 N.am      2 UNK        -0.4145 
     35 C          29.8545   23.5991   -0.7779 C.2       1 UNK         0.5006 
     36 O          28.6711   23.2652   -0.8557 O.2       1 UNK        -0.5103 
     37 C          26.0154   28.5657    4.6714 C.2       5 UNK         0.5055 
     38 O          26.7845   29.0441    5.5053 O.2       5 UNK        -0.5220 
     39 N          24.8902   29.1691    4.2592 N.am      6 UNK        -0.4450 
     40 CA         24.4550   30.5009    4.6871 C.3       6 UNK         0.0367 
     41 CB         22.9592   30.6704    4.3747 C.3       6 UNK        -0.1929 
     42 C          25.2687   31.6381    4.0431 C.2       6 UNK         0.5070 
     43 O          25.4180   32.6919    4.6620 O.2       6 UNK        -0.5237 
     44 N          25.7717   31.4161    2.8200 N.am      7 UNK        -0.4739 
     45 CA         26.6410   32.3548    2.1046 C.3       7 UNK         0.0276 
     46 CB         26.5609   32.0832    0.5928 C.3       7 UNK        -0.1927 
     47 C          28.0951   32.2670    2.5957 C.2       7 UNK         0.5013 
     48 O          28.7606   33.2993    2.6920 O.2       7 UNK        -0.5193 
     49 N          28.5324   31.0383    2.9095 N.am      8 UNK        -0.4253 
     50 CA         29.8666   30.6295    3.3545 C.3       8 UNK         0.0242 
     51 CB         30.2806   31.3637    4.6490 C.3       8 UNK        -0.2000 
     52 C          30.9279   30.7331    2.2416 C.2       8 UNK         0.4948 
     53 O          30.6286   31.1108    1.1062 O.2       8 UNK        -0.5275 
     54 N          32.1536   30.3387    2.5900 N.am      9 UNK        -0.4246 
     55 CA         33.3384   30.2936    1.7404 C.3       9 UNK         0.0261 
     56 CB         33.2605   29.0849    0.7788 C.3       9 UNK        -0.1959 
     57 C          34.5550   30.2536    2.6796 C.2       9 UNK         0.5033 
     58 O          34.4586   30.7394    3.8105 O.2       9 UNK        -0.5390 
     59 N          35.6655   29.6527    2.2297 N.am      10 UNK        -0.4215 
     60 CA         36.8226   29.3388    3.0768 C.3       10 UNK         0.0240 
     61 CB         37.9981   28.8771    2.1998 C.3       10 UNK        -0.1982 
     62 C          36.4922   28.2819    4.1491 C.2       10 UNK         0.4970 
     63 O          36.9720   28.3970    5.2771 O.2       10 UNK        -0.4916 
     64 N          35.6642   27.2959    3.7712 N.am      11 UNK        -0.4279 
     65 CA         35.0947   26.2419    4.6300 C.3       11 UNK         0.1003 
     66 C          36.1351   25.2752    5.2767 C.2       11 UNK         0.5709 
     67 N          37.3518   25.1732    4.7546 N.am      11 UNK        -0.7358 
     68 O          35.8312   24.5788    6.2424 O.2       11 UNK        -0.4999 
     69 C69        34.0557   26.7992    5.6515 C.3       12 UNK        -0.0954 
     70 S70        32.6665   27.6797    4.8491 S.3       12 UNK        -0.2268 
     71 C71        31.2067   27.0155    5.7304 C.3       12 UNK         0.0203 
     72 H72        31.0039   27.6072    2.3778 H         1 UNK         0.0888 
     73 H73        29.6679   28.0901    1.3311 H         1 UNK         0.0888 
     74 H74        29.3959   26.9237    2.6283 H         1 UNK         0.0888 
     75 H75        29.8040   24.7517    2.2276 H         1 UNK         0.3017 
     76 H76        30.0678   22.8420    1.1791 H         1 UNK         0.0873 
     77 H77        32.5760   24.1072   -0.0550 H         1 UNK         0.0745 
     78 H78        32.2400   22.3999    0.0431 H         1 UNK         0.0745 
     79 H79        31.2382   21.7565    2.8559 H         1 UNK         0.0705 
     80 H80        32.4286   22.0205    4.0974 H         1 UNK         0.0705 
     81 H81        32.4933   24.9811    4.3271 H         1 UNK         0.1334 
     82 H82        28.7124   26.0287    6.0483 H         1 UNK         0.1417 
     83 H83        29.1964   22.2827    4.0213 H         1 UNK         0.1562 
     84 H84        27.1196   24.0714    6.4179 H         1 UNK         0.0748 
     85 H85        27.2726   22.6529    5.4268 H         1 UNK         0.0748 
     86 H86        26.1663   26.1158    5.9138 H         1 UNK         0.0940 
     87 H87        24.7023   26.1238    4.9739 H         1 UNK         0.0940 
     88 H88        27.4374   27.1186    4.0297 H         1 UNK         0.0703 
     89 H89        25.2859   26.3459    2.4157 H         1 UNK         0.3081 
     90 H90        25.5567   26.5222    0.1861 H         1 UNK         0.0719 
     91 H91        24.8989   29.5239   -0.0734 H         1 UNK         0.0809 
     92 H92        24.2672   28.2489   -1.1110 H         1 UNK         0.0809 
     93 H93        23.8212   28.2991    0.5858 H         1 UNK         0.0809 
     94 H94        27.6333   28.4834   -0.3716 H         1 UNK         0.2990 
     95 H95        28.1359   27.6970   -3.6561 H         1 UNK         0.0690 
     96 H96        30.0793   28.9089   -2.7335 H         1 UNK         0.0788 
     97 H97        29.5834   28.5575   -1.0873 H         1 UNK         0.0788 
     98 H98        28.5949   29.5987   -2.1099 H         1 UNK         0.0788 
     99 H99        29.9509   26.2332   -1.8298 H         1 UNK         0.2993 
    100 H100       29.5224   23.1600   -3.4326 H         1 UNK         0.0949 
    101 H101       31.0115   24.0960   -5.2065 H         1 UNK         0.0767 
    102 H102       31.9755   24.9198   -3.9884 H         1 UNK         0.0767 
    103 H103       31.9353   23.1564   -4.0467 H         1 UNK         0.0767 
    104 H104       31.5439   24.2651   -1.6655 H         1 UNK         0.3013 
    105 H105       24.3088   28.6932    3.5848 H         1 UNK         0.3121 
    106 H106       24.5868   30.5741    5.7690 H         1 UNK         0.0774 
    107 H107       22.6004   31.6452    4.7083 H         1 UNK         0.0815 
    108 H108       22.7573   30.5985    3.3052 H         1 UNK         0.0815 
    109 H109       22.3588   29.9157    4.8830 H         1 UNK         0.0815 
    110 H110       25.6464   30.5057    2.4015 H         1 UNK         0.2987 
    111 H111       26.2874   33.3727    2.2849 H         1 UNK         0.0949 
    112 H112       26.9258   31.0879    0.3373 H         1 UNK         0.0806 
    113 H113       25.5384   32.1725    0.2260 H         1 UNK         0.0806 
    114 H114       27.1679   32.8005    0.0389 H         1 UNK         0.0806 
    115 H115       27.9117   30.2651    2.6820 H         1 UNK         0.3010 
    116 H116       29.7726   29.5700    3.5964 H         1 UNK         0.0829 
    117 H117       29.4827   31.3320    5.3914 H         1 UNK         0.0813 
    118 H118       31.1570   30.9029    5.1057 H         1 UNK         0.0813 
    119 H119       30.5243   32.4101    4.4635 H         1 UNK         0.0813 
    120 H120       32.3458   30.1053    3.5572 H         1 UNK         0.3038 
    121 H121       33.3946   31.2177    1.1619 H         1 UNK         0.0769 
    122 H122       32.3395   29.0976    0.1951 H         1 UNK         0.0811 
    123 H123       33.2897   28.1367    1.3173 H         1 UNK         0.0811 
    124 H124       34.0806   29.0884    0.0606 H         1 UNK         0.0811 
    125 H125       35.6811   29.3062    1.2814 H         1 UNK         0.3204 
    126 H126       37.1219   30.2531    3.5941 H         1 UNK         0.0748 
    127 H127       38.2893   29.6506    1.4888 H         1 UNK         0.0771 
    128 H128       38.8749   28.6548    2.8100 H         1 UNK         0.0771 
    129 H129       37.7567   27.9757    1.6351 H         1 UNK         0.0771 
    130 H130       35.3476   27.2845    2.8142 H         1 UNK         0.2980 
    131 H131       34.5548   25.5981    3.9374 H         1 UNK         0.0545 
    132 H132       38.0151   24.5388    5.1705 H         1 UNK         0.3459 
    133 H133       37.6151   25.7298    3.9579 H         1 UNK         0.3459 
    134 H134       33.6433   25.9900    6.2560 H         1 UNK         0.0616 
    135 H135       34.5374   27.4823    6.3525 H         1 UNK         0.0616 
    136 H136       31.4364   26.9259    6.7928 H         1 UNK         0.0634 
    137 H137       30.4189   27.7665    5.6512 H         1 UNK         0.0634 
@<TRIPOS>BOND
     1    1    2 1    
     2    1   72 1    
     3    1   73 1    
     4    1   74 1    
     5    2    3 2    
     6    2    4 am   BACKBONE|DICT|INTERRES
     7    4    5 1    
     8    4   75 1    
     9    5    6 1    
    10    5   35 1    
    11    5   76 1    
    12    6    7 1    
    13    6   77 1    
    14    6   78 1    
    15    7    8 1    
    16    8    9 1    
    17    8   79 1    
    18    8   80 1    
    19    9   10 ar   
    20    9   14 ar   
    21   10   11 ar   
    22   10   81 1    
    23   11   12 ar   
    24   11   71 1    
    25   12   13 ar   
    26   12   82 1    
    27   13   14 ar   
    28   13   15 1    
    29   14   83 1    
    30   15   16 1    
    31   15   84 1    
    32   15   85 1    
    33   16   17 1    
    34   17   18 1    
    35   17   86 1    
    36   17   87 1    
    37   18   19 1    
    38   18   37 1    
    39   18   88 1    
    40   19   20 am   BACKBONE|DICT|INTERRES
    41   19   89 1    
    42   20   21 2    
    43   20   22 1    
    44   22   23 1    
    45   22   24 1    
    46   22   90 1    
    47   23   91 1    
    48   23   92 1    
    49   23   93 1    
    50   24   25 am   BACKBONE|DICT|INTERRES
    51   24   94 1    
    52   25   26 2    
    53   25   27 1    
    54   27   28 1    
    55   27   29 1    
    56   27   95 1    
    57   28   96 1    
    58   28   97 1    
    59   28   98 1    
    60   29   30 am   BACKBONE|DICT|INTERRES
    61   29   99 1    
    62   30   31 2    
    63   30   32 1    
    64   32   33 1    
    65   32   34 1    
    66   32  100 1    
    67   33  101 1    
    68   33  102 1    
    69   33  103 1    
    70   34   35 am   BACKBONE|DICT|INTERRES
    71   34  104 1    
    72   35   36 2    
    73   37   38 2    
    74   37   39 am   BACKBONE|DICT|INTERRES
    75   39   40 1    
    76   39  105 1    
    77   40   41 1    
    78   40   42 1    
    79   40  106 1    
    80   41  107 1    
    81   41  108 1    
    82   41  109 1    
    83   42   43 2    
    84   42   44 am   BACKBONE|DICT|INTERRES
    85   44   45 1    
    86   44  110 1    
    87   45   46 1    
    88   45   47 1    
    89   45  111 1    
    90   46  112 1    
    91   46  113 1    
    92   46  114 1    
    93   47   48 2    
    94   47   49 am   BACKBONE|DICT|INTERRES
    95   49   50 1    
    96   49  115 1    
    97   50   51 1    
    98   50   52 1    
    99   50  116 1    
   100   51  117 1    
   101   51  118 1    
   102   51  119 1    
   103   52   53 2    
   104   52   54 am   BACKBONE|DICT|INTERRES
   105   54   55 1    
   106   54  120 1    
   107   55   56 1    
   108   55   57 1    
   109   55  121 1    
   110   56  122 1    
   111   56  123 1    
   112   56  124 1    
   113   57   58 2    
   114   57   59 am   BACKBONE|DICT|INTERRES
   115   59   60 1    
   116   59  125 1    
   117   60   61 1    
   118   60   62 1    
   119   60  126 1    
   120   61  127 1    
   121   61  128 1    
   122   61  129 1    
   123   62   63 2    
   124   62   64 am   BACKBONE|DICT|INTERRES
   125   64   65 1    
   126   64  130 1    
   127   65   66 1    
   128   65   69 1    
   129   65  131 1    
   130   66   67 am   BACKBONE|DICT|INTERRES
   131   66   68 2    
   132   67  132 1    
   133   67  133 1    
   134   69   70 1    
   135   69  134 1    
   136   69  135 1    
   137   70   71 1    
   138   71  136 1    
   139   71  137 1    
@<TRIPOS>SUBSTRUCTURE
     1 UNK         1 GROUP             0       ****    0 ROOT    
