@<TRIPOS>MOLECULE
3R136
137   139    1
SMALL
USER_CHARGES


@<TRIPOS>ATOM
      1 CA         29.4070   25.9392    3.8331 C.3       0 UNK        -0.1979 
      2 C          28.9079   24.6393    3.2183 C.2       0 UNK         0.4864 
      3 O          28.0023   24.0135    3.7708 O.2       0 UNK        -0.5359 
      4 N          29.4935   24.2283    2.0860 N.am      1 UNK        -0.4318 
      5 CA         29.0843   23.0521    1.3089 C.3       1 UNK         0.0824 
      6 C6         30.1657   22.6454    0.2776 C.3       12 UNK        -0.0944 
      7 S7         31.6468   21.9590    1.0882 S.3       12 UNK        -0.2672 
      8 C8         32.9448   23.1279    0.5767 C.3       12 UNK         0.0333 
      9 C9         32.8263   24.4735    1.2783 C.ar      12 UNK        -0.0807 
     10 C10        33.0166   24.5618    2.6598 C.ar      12 UNK        -0.0894 
     11 C11        32.9681   25.7989    3.3075 C.ar      12 UNK        -0.0804 
     12 C12        32.7251   26.9563    2.5610 C.ar      12 UNK        -0.0824 
     13 C13        32.5096   26.8813    1.1811 C.ar      12 UNK        -0.0762 
     14 C14        32.5698   25.6356    0.5450 C.ar      12 UNK        -0.0782 
     15 C15        32.2753   28.1588    0.3811 C.3       12 UNK         0.0230 
     16 S16        30.9189   28.0233   -0.8303 S.3       12 UNK        -0.2608 
     17 C17        29.4545   28.0207    0.2576 C.3       12 UNK        -0.0989 
     18 CA         28.1230   28.1733   -0.5220 C.3       5 UNK         0.0716 
     19 N          26.9824   27.8325    0.3286 N.am      5 UNK        -0.4135 
     20 C          25.8238   27.3469   -0.1269 C.2       4 UNK         0.5031 
     21 O          25.6104   27.0464   -1.3058 O.2       4 UNK        -0.5229 
     22 CA         24.6984   27.1899    0.9004 C.3       4 UNK         0.0329 
     23 CB         23.7945   28.4378    0.9168 C.3       4 UNK        -0.2001 
     24 N          23.9421   26.0017    0.5295 N.am      4 UNK        -0.4303 
     25 C          23.0504   25.3464    1.2799 C.2       3 UNK         0.5044 
     26 O          22.6653   25.7222    2.3877 O.2       3 UNK        -0.5152 
     27 CA         22.5234   24.0216    0.6987 C.3       3 UNK         0.0319 
     28 CB         21.3396   24.2744   -0.2490 C.3       3 UNK        -0.2001 
     29 N          23.5703   23.2752   -0.0086 N.am      3 UNK        -0.4354 
     30 C          24.6205   22.6988    0.5943 C.2       2 UNK         0.4964 
     31 O          24.7408   22.6242    1.8193 O.2       2 UNK        -0.5047 
     32 CA         25.7065   22.0796   -0.3097 C.3       2 UNK         0.0288 
     33 CB         25.7256   22.6442   -1.7504 C.3       2 UNK        -0.2113 
     34 N          27.0390   22.1627    0.3050 N.am      2 UNK        -0.4145 
     35 C          27.7269   23.2758    0.6083 C.2       1 UNK         0.5006 
     36 O          27.3561   24.4193    0.3310 O.2       1 UNK        -0.5103 
     37 C          27.9260   29.5938   -1.0969 C.2       5 UNK         0.5055 
     38 O          27.2292   30.4150   -0.4932 O.2       5 UNK        -0.5220 
     39 N          28.5529   29.8613   -2.2508 N.am      6 UNK        -0.4450 
     40 CA         28.5962   31.1837   -2.8838 C.3       6 UNK         0.0367 
     41 CB         29.0491   31.0330   -4.3451 C.3       6 UNK        -0.1929 
     42 C          29.5103   32.1729   -2.1356 C.2       6 UNK         0.5070 
     43 O          29.2712   33.3796   -2.1956 O.2       6 UNK        -0.5237 
     44 N          30.5297   31.6463   -1.4464 N.am      7 UNK        -0.4739 
     45 CA         31.4012   32.3813   -0.5300 C.3       7 UNK         0.0276 
     46 CB         32.8466   31.8939   -0.7335 C.3       7 UNK        -0.1927 
     47 C          30.9394   32.1556    0.9199 C.2       7 UNK         0.5013 
     48 O          30.0538   31.3340    1.1671 O.2       7 UNK        -0.5193 
     49 N          31.5512   32.8826    1.8633 N.am      8 UNK        -0.4253 
     50 CA         31.2981   32.7430    3.3000 C.3       8 UNK         0.0242 
     51 CB         32.0502   33.8508    4.0560 C.3       8 UNK        -0.2000 
     52 C          31.7205   31.3612    3.8282 C.2       8 UNK         0.4948 
     53 O          32.7491   30.8291    3.4018 O.2       8 UNK        -0.5275 
     54 N          30.9611   30.8296    4.7946 N.am      9 UNK        -0.4246 
     55 CA         31.2076   29.5447    5.4603 C.3       9 UNK         0.0261 
     56 CB         29.8891   29.0327    6.0693 C.3       9 UNK        -0.1959 
     57 C          32.3518   29.6163    6.4953 C.2       9 UNK         0.5033 
     58 O          32.2063   29.1263    7.6166 O.2       9 UNK        -0.5390 
     59 N          33.4807   30.2209    6.1078 N.am      10 UNK        -0.4215 
     60 CA         34.6533   30.5052    6.9410 C.3       10 UNK         0.0240 
     61 CB         35.4172   31.6903    6.3196 C.3       10 UNK        -0.1982 
     62 C          35.5560   29.2754    7.1789 C.2       10 UNK         0.4970 
     63 O          36.7817   29.3993    7.1422 O.2       10 UNK        -0.4916 
     64 N          34.9385   28.1151    7.4218 N.am      11 UNK        -0.4279 
     65 CA         35.6086   26.8414    7.7264 C.3       11 UNK         0.1003 
     66 C          35.8025   26.5912    9.2504 C.2       11 UNK         0.5709 
     67 N          35.3059   27.4453   10.1385 N.am      11 UNK        -0.7358 
     68 O          36.4325   25.6094    9.6369 O.2       11 UNK        -0.4999 
     69 C69        34.8954   25.6476    7.0397 C.3       12 UNK        -0.0954 
     70 S70        34.9521   25.7622    5.2196 S.3       12 UNK        -0.2268 
     71 C71        33.1853   25.8714    4.8109 C.3       12 UNK         0.0203 
     72 H72        28.5643   26.5578    4.1405 H         1 UNK         0.0888 
     73 H73        30.0155   25.7303    4.7123 H         1 UNK         0.0888 
     74 H74        30.0049   26.5166    3.1302 H         1 UNK         0.0888 
     75 H75        30.2535   24.7643    1.6926 H         1 UNK         0.3017 
     76 H76        28.9496   22.2267    2.0120 H         1 UNK         0.0873 
     77 H77        30.4339   23.4921   -0.3573 H         1 UNK         0.0745 
     78 H78        29.7936   21.8714   -0.3968 H         1 UNK         0.0745 
     79 H79        32.9211   23.2431   -0.5082 H         1 UNK         0.0705 
     80 H80        33.9170   22.6939    0.8144 H         1 UNK         0.0705 
     81 H81        33.2186   23.6652    3.2305 H         1 UNK         0.1334 
     82 H82        32.7162   27.9202    3.0493 H         1 UNK         0.1417 
     83 H83        32.4344   25.5753   -0.5265 H         1 UNK         0.1562 
     84 H84        33.1952   28.3976   -0.1538 H         1 UNK         0.0748 
     85 H85        32.0748   29.0033    1.0434 H         1 UNK         0.0748 
     86 H86        29.5556   28.7925    1.0222 H         1 UNK         0.0940 
     87 H87        29.4565   27.0673    0.7874 H         1 UNK         0.0940 
     88 H88        28.1429   27.4696   -1.3577 H         1 UNK         0.0703 
     89 H89        27.0481   28.1148    1.2948 H         1 UNK         0.3081 
     90 H90        25.1332   27.0324    1.8898 H         1 UNK         0.0719 
     91 H91        24.3722   29.3350    1.1433 H         1 UNK         0.0809 
     92 H92        23.3122   28.5957   -0.0487 H         1 UNK         0.0809 
     93 H93        23.0130   28.3591    1.6725 H         1 UNK         0.0809 
     94 H94        24.2125   25.6161   -0.3668 H         1 UNK         0.2990 
     95 H95        22.1688   23.4094    1.5309 H         1 UNK         0.0690 
     96 H96        20.9155   23.3382   -0.6125 H         1 UNK         0.0788 
     97 H97        21.6316   24.8704   -1.1146 H         1 UNK         0.0788 
     98 H98        20.5408   24.8133    0.2627 H         1 UNK         0.0788 
     99 H99        23.5304   23.2715   -1.0176 H         1 UNK         0.2993 
    100 H100       25.4695   21.0166   -0.3752 H         1 UNK         0.0949 
    101 H101       25.8357   23.7296   -1.7645 H         1 UNK         0.0767 
    102 H102       26.5512   22.2232   -2.3245 H         1 UNK         0.0767 
    103 H103       24.8107   22.3956   -2.2893 H         1 UNK         0.0767 
    104 H104       27.4269   21.2763    0.5968 H         1 UNK         0.3013 
    105 H105       29.1081   29.1331   -2.6786 H         1 UNK         0.3121 
    106 H106       27.5864   31.6001   -2.8802 H         1 UNK         0.0774 
    107 H107       29.0654   32.0005   -4.8488 H         1 UNK         0.0815 
    108 H108       30.0529   30.6122   -4.4167 H         1 UNK         0.0815 
    109 H109       28.3723   30.3888   -4.9067 H         1 UNK         0.0815 
    110 H110       30.5922   30.6390   -1.3958 H         1 UNK         0.2987 
    111 H111       31.3564   33.4524   -0.7397 H         1 UNK         0.0949 
    112 H112       33.1679   32.0336   -1.7659 H         1 UNK         0.0806 
    113 H113       33.5456   32.4451   -0.1036 H         1 UNK         0.0806 
    114 H114       32.9555   30.8374   -0.4916 H         1 UNK         0.0806 
    115 H115       32.2899   33.5150    1.5926 H         1 UNK         0.3010 
    116 H116       30.2259   32.8704    3.4650 H         1 UNK         0.0829 
    117 H117       31.7345   34.8415    3.7282 H         1 UNK         0.0813 
    118 H118       31.8612   33.7914    5.1288 H         1 UNK         0.0813 
    119 H119       33.1292   33.7766    3.9123 H         1 UNK         0.0813 
    120 H120       30.1608   31.3523    5.1217 H         1 UNK         0.3038 
    121 H121       31.5108   28.8231    4.7025 H         1 UNK         0.0769 
    122 H122       30.0179   28.0411    6.5057 H         1 UNK         0.0811 
    123 H123       29.1076   28.9506    5.3138 H         1 UNK         0.0811 
    124 H124       29.5267   29.6920    6.8589 H         1 UNK         0.0811 
    125 H125       33.5205   30.5310    5.1397 H         1 UNK         0.3204 
    126 H126       34.2999   30.8226    7.9242 H         1 UNK         0.0748 
    127 H127       36.2535   31.9958    6.9501 H         1 UNK         0.0771 
    128 H128       35.8209   31.4376    5.3383 H         1 UNK         0.0771 
    129 H129       34.7713   32.5608    6.2019 H         1 UNK         0.0771 
    130 H130       33.9266   28.1255    7.4897 H         1 UNK         0.2980 
    131 H131       36.6211   26.8781    7.3201 H         1 UNK         0.0545 
    132 H132       35.4469   27.2716   11.1213 H         1 UNK         0.3459 
    133 H133       34.7882   28.2552    9.8379 H         1 UNK         0.3459 
    134 H134       35.3733   24.7045    7.3113 H         1 UNK         0.0616 
    135 H135       33.8615   25.5729    7.3811 H         1 UNK         0.0616 
    136 H136       32.6486   25.0535    5.2943 H         1 UNK         0.0634 
    137 H137       32.7775   26.7962    5.2192 H         1 UNK         0.0634 
@<TRIPOS>BOND
     1    1    2 1    
     2    1   72 1    
     3    1   73 1    
     4    1   74 1    
     5    2    3 2    
     6    2    4 am   BACKBONE|DICT|INTERRES
     7    4    5 1    
     8    4   75 1    
     9    5    6 1    
    10    5   35 1    
    11    5   76 1    
    12    6    7 1    
    13    6   77 1    
    14    6   78 1    
    15    7    8 1    
    16    8    9 1    
    17    8   79 1    
    18    8   80 1    
    19    9   10 ar   
    20    9   14 ar   
    21   10   11 ar   
    22   10   81 1    
    23   11   12 ar   
    24   11   71 1    
    25   12   13 ar   
    26   12   82 1    
    27   13   14 ar   
    28   13   15 1    
    29   14   83 1    
    30   15   16 1    
    31   15   84 1    
    32   15   85 1    
    33   16   17 1    
    34   17   18 1    
    35   17   86 1    
    36   17   87 1    
    37   18   19 1    
    38   18   37 1    
    39   18   88 1    
    40   19   20 am   BACKBONE|DICT|INTERRES
    41   19   89 1    
    42   20   21 2    
    43   20   22 1    
    44   22   23 1    
    45   22   24 1    
    46   22   90 1    
    47   23   91 1    
    48   23   92 1    
    49   23   93 1    
    50   24   25 am   BACKBONE|DICT|INTERRES
    51   24   94 1    
    52   25   26 2    
    53   25   27 1    
    54   27   28 1    
    55   27   29 1    
    56   27   95 1    
    57   28   96 1    
    58   28   97 1    
    59   28   98 1    
    60   29   30 am   BACKBONE|DICT|INTERRES
    61   29   99 1    
    62   30   31 2    
    63   30   32 1    
    64   32   33 1    
    65   32   34 1    
    66   32  100 1    
    67   33  101 1    
    68   33  102 1    
    69   33  103 1    
    70   34   35 am   BACKBONE|DICT|INTERRES
    71   34  104 1    
    72   35   36 2    
    73   37   38 2    
    74   37   39 am   BACKBONE|DICT|INTERRES
    75   39   40 1    
    76   39  105 1    
    77   40   41 1    
    78   40   42 1    
    79   40  106 1    
    80   41  107 1    
    81   41  108 1    
    82   41  109 1    
    83   42   43 2    
    84   42   44 am   BACKBONE|DICT|INTERRES
    85   44   45 1    
    86   44  110 1    
    87   45   46 1    
    88   45   47 1    
    89   45  111 1    
    90   46  112 1    
    91   46  113 1    
    92   46  114 1    
    93   47   48 2    
    94   47   49 am   BACKBONE|DICT|INTERRES
    95   49   50 1    
    96   49  115 1    
    97   50   51 1    
    98   50   52 1    
    99   50  116 1    
   100   51  117 1    
   101   51  118 1    
   102   51  119 1    
   103   52   53 2    
   104   52   54 am   BACKBONE|DICT|INTERRES
   105   54   55 1    
   106   54  120 1    
   107   55   56 1    
   108   55   57 1    
   109   55  121 1    
   110   56  122 1    
   111   56  123 1    
   112   56  124 1    
   113   57   58 2    
   114   57   59 am   BACKBONE|DICT|INTERRES
   115   59   60 1    
   116   59  125 1    
   117   60   61 1    
   118   60   62 1    
   119   60  126 1    
   120   61  127 1    
   121   61  128 1    
   122   61  129 1    
   123   62   63 2    
   124   62   64 am   BACKBONE|DICT|INTERRES
   125   64   65 1    
   126   64  130 1    
   127   65   66 1    
   128   65   69 1    
   129   65  131 1    
   130   66   67 am   BACKBONE|DICT|INTERRES
   131   66   68 2    
   132   67  132 1    
   133   67  133 1    
   134   69   70 1    
   135   69  134 1    
   136   69  135 1    
   137   70   71 1    
   138   71  136 1    
   139   71  137 1    
@<TRIPOS>SUBSTRUCTURE
     1 UNK         1 GROUP             0       ****    0 ROOT    
