@<TRIPOS>MOLECULE
3R136
137   139    1
SMALL
USER_CHARGES


@<TRIPOS>ATOM
      1 CA         25.7103   21.8573    2.5805 C.3       0 UNK        -0.1979 
      2 C          26.3521   23.1155    2.0178 C.2       0 UNK         0.4864 
      3 O          26.1808   23.4046    0.8319 O.2       0 UNK        -0.5359 
      4 N          27.0743   23.8686    2.8634 N.am      1 UNK        -0.4318 
      5 CA         27.8179   25.0938    2.5343 C.3       1 UNK         0.0824 
      6 C6         28.4235   25.7621    3.8003 C.3       12 UNK        -0.0944 
      7 S7         29.6833   24.7862    4.7014 S.3       12 UNK        -0.2672 
      8 C8         30.8541   24.1682    3.4383 C.3       12 UNK         0.0333 
      9 C9         31.8971   25.1871    2.9786 C.ar      12 UNK        -0.0807 
     10 C10        33.2578   24.8829    3.0900 C.ar      12 UNK        -0.0894 
     11 C11        34.2313   25.7512    2.5857 C.ar      12 UNK        -0.0804 
     12 C12        33.8411   26.9562    1.9923 C.ar      12 UNK        -0.0824 
     13 C13        32.4852   27.2786    1.8780 C.ar      12 UNK        -0.0762 
     14 C14        31.5242   26.3896    2.3701 C.ar      12 UNK        -0.0782 
     15 C15        32.0491   28.5793    1.2124 C.3       12 UNK         0.0230 
     16 S16        32.0922   28.4819   -0.6096 S.3       12 UNK        -0.2608 
     17 C17        30.8157   27.2197   -0.9515 C.3       12 UNK        -0.0989 
     18 CA         29.6273   27.6484   -1.8579 C.3       5 UNK         0.0716 
     19 N          28.6334   26.5771   -1.9023 N.am      5 UNK        -0.4135 
     20 C          28.7283   25.5153   -2.7111 C.2       4 UNK         0.5031 
     21 O          29.5239   25.4413   -3.6493 O.2       4 UNK        -0.5229 
     22 CA         27.8490   24.2930   -2.3986 C.3       4 UNK         0.0329 
     23 CB         28.6177   23.3157   -1.4933 C.3       4 UNK        -0.2001 
     24 N          26.5656   24.6033   -1.7700 N.am      4 UNK        -0.4303 
     25 C          25.5105   25.1203   -2.4132 C.2       3 UNK         0.5044 
     26 O          25.5328   25.4861   -3.5888 O.2       3 UNK        -0.5152 
     27 CA         24.2016   25.2220   -1.6159 C.3       3 UNK         0.0319 
     28 CB         23.4975   23.8563   -1.5553 C.3       3 UNK        -0.2001 
     29 N          24.4438   25.7035   -0.2570 N.am      3 UNK        -0.4354 
     30 C          24.4515   26.9978    0.0885 C.2       2 UNK         0.4964 
     31 O          24.1757   27.9160   -0.6842 O.2       2 UNK        -0.5047 
     32 CA         24.8365   27.3392    1.5391 C.3       2 UNK         0.0288 
     33 CB         23.5799   27.4773    2.4139 C.3       2 UNK        -0.2113 
     34 N          25.7615   26.3904    2.1675 N.am      2 UNK        -0.4145 
     35 C          26.9978   26.1151    1.7248 C.2       1 UNK         0.5006 
     36 O          27.4838   26.5873    0.6959 O.2       1 UNK        -0.5103 
     37 C          28.9358   28.9656   -1.4624 C.2       5 UNK         0.5055 
     38 O          28.6386   29.7833   -2.3352 O.2       5 UNK        -0.5220 
     39 N          28.6951   29.1480   -0.1623 N.am      6 UNK        -0.4450 
     40 CA         28.1219   30.3257    0.4789 C.3       6 UNK         0.0367 
     41 CB         29.1526   31.4692    0.5261 C.3       6 UNK        -0.1929 
     42 C          27.7215   29.8988    1.8929 C.2       6 UNK         0.5070 
     43 O          28.2804   28.9290    2.4063 O.2       6 UNK        -0.5237 
     44 N          26.7727   30.6108    2.5116 N.am      7 UNK        -0.4739 
     45 CA         26.1472   30.2631    3.7983 C.3       7 UNK         0.0276 
     46 CB         24.8061   31.0118    3.9134 C.3       7 UNK        -0.1927 
     47 C          27.0419   30.4458    5.0481 C.2       7 UNK         0.5013 
     48 O          26.5519   30.8688    6.0968 O.2       7 UNK        -0.5193 
     49 N          28.3254   30.1012    4.9275 N.am      8 UNK        -0.4253 
     50 CA         29.3413   30.0638    5.9707 C.3       8 UNK         0.0242 
     51 CB         29.7614   31.4886    6.3802 C.3       8 UNK        -0.2000 
     52 C          30.5394   29.2958    5.4068 C.2       8 UNK         0.4948 
     53 O          30.8406   29.4322    4.2179 O.2       8 UNK        -0.5275 
     54 N          31.2426   28.5475    6.2652 N.am      9 UNK        -0.4246 
     55 CA         32.4831   27.8445    5.9248 C.3       9 UNK         0.0261 
     56 CB         32.7309   26.7193    6.9451 C.3       9 UNK        -0.1959 
     57 C          33.6592   28.8343    5.8318 C.2       9 UNK         0.5033 
     58 O          34.5400   28.8388    6.6944 O.2       9 UNK        -0.5390 
     59 N          33.6251   29.6833    4.7954 N.am      10 UNK        -0.4215 
     60 CA         34.5389   30.8069    4.5515 C.3       10 UNK         0.0240 
     61 CB         34.0765   31.5664    3.2975 C.3       10 UNK        -0.1982 
     62 C          36.0268   30.4289    4.4315 C.2       10 UNK         0.4970 
     63 O          36.8812   31.2987    4.6059 O.2       10 UNK        -0.4916 
     64 N          36.3100   29.1513    4.1544 N.am      11 UNK        -0.4279 
     65 CA         37.6486   28.5542    4.2121 C.3       11 UNK         0.1003 
     66 C          38.2567   28.4430    5.6436 C.2       11 UNK         0.5709 
     67 N          37.4815   28.5766    6.7149 N.am      11 UNK        -0.7358 
     68 O          39.4617   28.2448    5.7811 O.2       11 UNK        -0.4999 
     69 C69        37.6867   27.2019    3.4566 C.3       12 UNK        -0.0954 
     70 S70        36.5280   25.9534    4.1271 S.3       12 UNK        -0.2268 
     71 C71        35.6966   25.3453    2.6283 C.3       12 UNK         0.0203 
     72 H72        26.0737   20.9817    2.0436 H         1 UNK         0.0888 
     73 H73        24.6282   21.9047    2.4625 H         1 UNK         0.0888 
     74 H74        25.9320   21.7234    3.6391 H         1 UNK         0.0888 
     75 H75        27.1718   23.5614    3.8210 H         1 UNK         0.3017 
     76 H76        28.6224   24.8011    1.8624 H         1 UNK         0.0873 
     77 H77        28.8567   26.7361    3.5799 H         1 UNK         0.0745 
     78 H78        27.6248   25.9799    4.5117 H         1 UNK         0.0745 
     79 H79        31.3621   23.3140    3.8883 H         1 UNK         0.0705 
     80 H80        30.3350   23.7533    2.5768 H         1 UNK         0.0705 
     81 H81        33.5640   23.9469    3.5372 H         1 UNK         0.1334 
     82 H82        34.5886   27.6282    1.5930 H         1 UNK         0.1417 
     83 H83        30.4827   26.6358    2.2525 H         1 UNK         0.1562 
     84 H84        32.7030   29.3882    1.5357 H         1 UNK         0.0748 
     85 H85        31.0459   28.8587    1.5379 H         1 UNK         0.0748 
     86 H86        30.4193   26.8398   -0.0126 H         1 UNK         0.0940 
     87 H87        31.3259   26.3691   -1.4064 H         1 UNK         0.0940 
     88 H88        30.0222   27.8133   -2.8630 H         1 UNK         0.0703 
     89 H89        27.9662   26.5608   -1.1336 H         1 UNK         0.3081 
     90 H90        27.6467   23.7868   -3.3451 H         1 UNK         0.0719 
     91 H91        28.8346   23.7561   -0.5193 H         1 UNK         0.0809 
     92 H92        28.0499   22.4002   -1.3258 H         1 UNK         0.0809 
     93 H93        29.5696   23.0293   -1.9427 H         1 UNK         0.0809 
     94 H94        26.4465   24.2940   -0.8077 H         1 UNK         0.2990 
     95 H95        23.5401   25.9148   -2.1408 H         1 UNK         0.0690 
     96 H96        22.5394   23.9285   -1.0403 H         1 UNK         0.0788 
     97 H97        24.1004   23.1095   -1.0367 H         1 UNK         0.0788 
     98 H98        23.2983   23.4758   -2.5581 H         1 UNK         0.0788 
     99 H99        24.7377   25.0133    0.4232 H         1 UNK         0.2993 
    100 H100       25.3349   28.3080    1.5054 H         1 UNK         0.0949 
    101 H101       22.8885   28.2074    1.9905 H         1 UNK         0.0767 
    102 H102       23.0432   26.5317    2.5002 H         1 UNK         0.0767 
    103 H103       23.8278   27.8166    3.4197 H         1 UNK         0.0767 
    104 H104       25.4369   25.9227    3.0012 H         1 UNK         0.3013 
    105 H105       28.8538   28.3875    0.4915 H         1 UNK         0.3121 
    106 H106       27.2310   30.6366   -0.0703 H         1 UNK         0.0774 
    107 H107       30.0492   31.1787    1.0755 H         1 UNK         0.0815 
    108 H108       28.7391   32.3499    1.0186 H         1 UNK         0.0815 
    109 H109       29.4588   31.7739   -0.4746 H         1 UNK         0.0815 
    110 H110       26.4031   31.4277    2.0459 H         1 UNK         0.2987 
    111 H111       25.9174   29.1962    3.7689 H         1 UNK         0.0949 
    112 H112       24.9526   32.0911    3.9687 H         1 UNK         0.0806 
    113 H113       24.1588   30.8015    3.0617 H         1 UNK         0.0806 
    114 H114       24.2602   30.7095    4.8082 H         1 UNK         0.0806 
    115 H115       28.6320   29.7198    4.0317 H         1 UNK         0.3010 
    116 H116       28.9404   29.5289    6.8340 H         1 UNK         0.0829 
    117 H117       28.9291   32.0455    6.8103 H         1 UNK         0.0813 
    118 H118       30.5528   31.4630    7.1303 H         1 UNK         0.0813 
    119 H119       30.1377   32.0550    5.5273 H         1 UNK         0.0813 
    120 H120       30.9595   28.5156    7.2342 H         1 UNK         0.3038 
    121 H121       32.3676   27.3768    4.9453 H         1 UNK         0.0769 
    122 H122       32.8349   27.1047    7.9600 H         1 UNK         0.0811 
    123 H123       33.6458   26.1754    6.7054 H         1 UNK         0.0811 
    124 H124       31.9155   25.9956    6.9393 H         1 UNK         0.0811 
    125 H125       32.7974   29.6312    4.2067 H         1 UNK         0.3204 
    126 H126       34.4497   31.4774    5.4085 H         1 UNK         0.0748 
    127 H127       34.6599   32.4777    3.1580 H         1 UNK         0.0771 
    128 H128       34.1973   30.9658    2.3959 H         1 UNK         0.0771 
    129 H129       33.0293   31.8620    3.3706 H         1 UNK         0.0771 
    130 H130       35.5463   28.5000    4.0551 H         1 UNK         0.2980 
    131 H131       38.3131   29.2313    3.6719 H         1 UNK         0.0545 
    132 H132       37.8939   28.5070    7.6310 H         1 UNK         0.3459 
    133 H133       36.4788   28.7126    6.6231 H         1 UNK         0.3459 
    134 H134       37.4647   27.3851    2.4049 H         1 UNK         0.0616 
    135 H135       38.6934   26.7802    3.4717 H         1 UNK         0.0616 
    136 H136       36.2062   25.6851    1.7262 H         1 UNK         0.0634 
    137 H137       35.7775   24.2573    2.6139 H         1 UNK         0.0634 
@<TRIPOS>BOND
     1    1    2 1    
     2    1   72 1    
     3    1   73 1    
     4    1   74 1    
     5    2    3 2    
     6    2    4 am   BACKBONE|DICT|INTERRES
     7    4    5 1    
     8    4   75 1    
     9    5    6 1    
    10    5   35 1    
    11    5   76 1    
    12    6    7 1    
    13    6   77 1    
    14    6   78 1    
    15    7    8 1    
    16    8    9 1    
    17    8   79 1    
    18    8   80 1    
    19    9   10 ar   
    20    9   14 ar   
    21   10   11 ar   
    22   10   81 1    
    23   11   12 ar   
    24   11   71 1    
    25   12   13 ar   
    26   12   82 1    
    27   13   14 ar   
    28   13   15 1    
    29   14   83 1    
    30   15   16 1    
    31   15   84 1    
    32   15   85 1    
    33   16   17 1    
    34   17   18 1    
    35   17   86 1    
    36   17   87 1    
    37   18   19 1    
    38   18   37 1    
    39   18   88 1    
    40   19   20 am   BACKBONE|DICT|INTERRES
    41   19   89 1    
    42   20   21 2    
    43   20   22 1    
    44   22   23 1    
    45   22   24 1    
    46   22   90 1    
    47   23   91 1    
    48   23   92 1    
    49   23   93 1    
    50   24   25 am   BACKBONE|DICT|INTERRES
    51   24   94 1    
    52   25   26 2    
    53   25   27 1    
    54   27   28 1    
    55   27   29 1    
    56   27   95 1    
    57   28   96 1    
    58   28   97 1    
    59   28   98 1    
    60   29   30 am   BACKBONE|DICT|INTERRES
    61   29   99 1    
    62   30   31 2    
    63   30   32 1    
    64   32   33 1    
    65   32   34 1    
    66   32  100 1    
    67   33  101 1    
    68   33  102 1    
    69   33  103 1    
    70   34   35 am   BACKBONE|DICT|INTERRES
    71   34  104 1    
    72   35   36 2    
    73   37   38 2    
    74   37   39 am   BACKBONE|DICT|INTERRES
    75   39   40 1    
    76   39  105 1    
    77   40   41 1    
    78   40   42 1    
    79   40  106 1    
    80   41  107 1    
    81   41  108 1    
    82   41  109 1    
    83   42   43 2    
    84   42   44 am   BACKBONE|DICT|INTERRES
    85   44   45 1    
    86   44  110 1    
    87   45   46 1    
    88   45   47 1    
    89   45  111 1    
    90   46  112 1    
    91   46  113 1    
    92   46  114 1    
    93   47   48 2    
    94   47   49 am   BACKBONE|DICT|INTERRES
    95   49   50 1    
    96   49  115 1    
    97   50   51 1    
    98   50   52 1    
    99   50  116 1    
   100   51  117 1    
   101   51  118 1    
   102   51  119 1    
   103   52   53 2    
   104   52   54 am   BACKBONE|DICT|INTERRES
   105   54   55 1    
   106   54  120 1    
   107   55   56 1    
   108   55   57 1    
   109   55  121 1    
   110   56  122 1    
   111   56  123 1    
   112   56  124 1    
   113   57   58 2    
   114   57   59 am   BACKBONE|DICT|INTERRES
   115   59   60 1    
   116   59  125 1    
   117   60   61 1    
   118   60   62 1    
   119   60  126 1    
   120   61  127 1    
   121   61  128 1    
   122   61  129 1    
   123   62   63 2    
   124   62   64 am   BACKBONE|DICT|INTERRES
   125   64   65 1    
   126   64  130 1    
   127   65   66 1    
   128   65   69 1    
   129   65  131 1    
   130   66   67 am   BACKBONE|DICT|INTERRES
   131   66   68 2    
   132   67  132 1    
   133   67  133 1    
   134   69   70 1    
   135   69  134 1    
   136   69  135 1    
   137   70   71 1    
   138   71  136 1    
   139   71  137 1    
@<TRIPOS>SUBSTRUCTURE
     1 UNK         1 GROUP             0       ****    0 ROOT    
