@<TRIPOS>MOLECULE
3R136
137   139    1
SMALL
USER_CHARGES


@<TRIPOS>ATOM
      1 CA         29.4005   20.0796    2.7342 C.3       0 UNK        -0.1979 
      2 C          28.8015   19.5710    1.4243 C.2       0 UNK         0.4864 
      3 O          28.6014   18.3642    1.2966 O.2       0 UNK        -0.5359 
      4 N          28.4972   20.4120    0.4224 N.am      1 UNK        -0.4318 
      5 CA         28.6243   21.8769    0.3496 C.3       1 UNK         0.0824 
      6 C6         30.0752   22.4109    0.4764 C.3       12 UNK        -0.0944 
      7 S7         31.2122   21.7485   -0.7885 S.3       12 UNK        -0.2672 
      8 C8         32.8412   22.1893   -0.0899 C.3       12 UNK         0.0333 
      9 C9         32.8721   23.6237    0.4206 C.ar      12 UNK        -0.0807 
     10 C10        32.7794   23.8760    1.7930 C.ar      12 UNK        -0.0894 
     11 C11        32.7055   25.1843    2.2769 C.ar      12 UNK        -0.0804 
     12 C12        32.7369   26.2451    1.3643 C.ar      12 UNK        -0.0824 
     13 C13        32.8540   26.0107   -0.0098 C.ar      12 UNK        -0.0762 
     14 C14        32.9309   24.6949   -0.4759 C.ar      12 UNK        -0.0782 
     15 C15        32.9070   27.1847   -0.9811 C.3       12 UNK         0.0230 
     16 S16        31.5611   27.1925   -2.2162 S.3       12 UNK        -0.2608 
     17 C17        30.0350   27.0913   -1.2200 C.3       12 UNK        -0.0989 
     18 CA         29.5846   28.4533   -0.6182 C.3       5 UNK         0.0716 
     19 N          28.1283   28.6297   -0.6932 N.am      5 UNK        -0.4135 
     20 C          27.4315   29.6629   -0.1948 C.2       4 UNK         0.5031 
     21 O          27.9526   30.6705    0.2826 O.2       4 UNK        -0.5229 
     22 CA         25.8950   29.5477   -0.1651 C.3       4 UNK         0.0329 
     23 CB         25.2753   30.4509   -1.2435 C.3       4 UNK        -0.2001 
     24 N          25.3468   28.1904   -0.3008 N.am      4 UNK        -0.4303 
     25 C          25.6365   27.1272    0.4640 C.2       3 UNK         0.5044 
     26 O          26.4813   27.1345    1.3650 O.2       3 UNK        -0.5152 
     27 CA         24.8805   25.8342    0.1266 C.3       3 UNK         0.0319 
     28 CB         25.1537   25.3792   -1.3227 C.3       3 UNK        -0.2001 
     29 N          25.2915   24.7811    1.0486 N.am      3 UNK        -0.4354 
     30 C          24.6036   23.6745    1.3449 C.2       2 UNK         0.4964 
     31 O          23.4767   23.4310    0.9089 O.2       2 UNK        -0.5047 
     32 CA         25.3341   22.6438    2.2280 C.3       2 UNK         0.0288 
     33 CB         24.4030   21.5266    2.7359 C.3       2 UNK        -0.2113 
     34 N          26.4439   22.0368    1.4872 N.am      2 UNK        -0.4145 
     35 C          27.6322   22.6201    1.2729 C.2       1 UNK         0.5006 
     36 O          27.9433   23.7060    1.7671 O.2       1 UNK        -0.5103 
     37 C          30.1074   28.6015    0.8258 C.2       5 UNK         0.5055 
     38 O          31.0955   29.3020    1.0476 O.2       5 UNK        -0.5220 
     39 N          29.4073   27.9715    1.7827 N.am      6 UNK        -0.4450 
     40 CA         29.7471   27.9975    3.2048 C.3       6 UNK         0.0367 
     41 CB         28.8683   26.9904    3.9619 C.3       6 UNK        -0.1929 
     42 C          29.6373   29.3968    3.8252 C.2       6 UNK         0.5070 
     43 O          30.4753   29.7556    4.6518 O.2       6 UNK        -0.5237 
     44 N          28.6310   30.1686    3.3940 N.am      7 UNK        -0.4739 
     45 CA         28.4342   31.5620    3.7918 C.3       7 UNK         0.0276 
     46 CB         26.9996   32.0005    3.4551 C.3       7 UNK        -0.1927 
     47 C          29.4639   32.4948    3.1363 C.2       7 UNK         0.5013 
     48 O          30.0103   33.3596    3.8203 O.2       7 UNK        -0.5193 
     49 N          29.7256   32.2878    1.8371 N.am      8 UNK        -0.4253 
     50 CA         30.6878   33.0516    1.0390 C.3       8 UNK         0.0242 
     51 CB         30.5607   32.6560   -0.4412 C.3       8 UNK        -0.2000 
     52 C          32.1376   32.8905    1.5235 C.2       8 UNK         0.4948 
     53 O          32.8472   33.8898    1.6457 O.2       8 UNK        -0.5275 
     54 N          32.5458   31.6461    1.8076 N.am      9 UNK        -0.4246 
     55 CA         33.8673   31.3191    2.3508 C.3       9 UNK         0.0261 
     56 CB         34.1806   29.8470    2.0499 C.3       9 UNK        -0.1959 
     57 C          33.9907   31.5846    3.8621 C.2       9 UNK         0.5033 
     58 O          35.1160   31.6416    4.3603 O.2       9 UNK        -0.5390 
     59 N          32.8504   31.7208    4.5570 N.am      10 UNK        -0.4215 
     60 CA         32.6965   31.8590    6.0093 C.3       10 UNK         0.0240 
     61 CB         33.2864   33.1958    6.5078 C.3       10 UNK        -0.1982 
     62 C          33.2408   30.6281    6.7596 C.2       10 UNK         0.4970 
     63 O          34.0705   30.7653    7.6614 O.2       10 UNK        -0.4916 
     64 N          32.7722   29.4434    6.3478 N.am      11 UNK        -0.4279 
     65 CA         33.1154   28.1453    6.9462 C.3       11 UNK         0.1003 
     66 C          32.6086   28.0139    8.4093 C.2       11 UNK         0.5709 
     67 N          33.3500   27.3196    9.2620 N.am      11 UNK        -0.7358 
     68 O          31.5347   28.4962    8.7660 O.2       11 UNK        -0.4999 
     69 C69        32.5956   26.9641    6.0869 C.3       12 UNK        -0.0954 
     70 S70        33.3540   26.8938    4.4317 S.3       12 UNK        -0.2268 
     71 C71        32.5145   25.4127    3.7757 C.3       12 UNK         0.0203 
     72 H72        30.4832   20.1599    2.6439 H         1 UNK         0.0888 
     73 H73        29.0020   21.0436    3.0410 H         1 UNK         0.0888 
     74 H74        29.1883   19.3765    3.5393 H         1 UNK         0.0888 
     75 H75        28.1269   19.9961   -0.4210 H         1 UNK         0.3017 
     76 H76        28.2911   22.1357   -0.6569 H         1 UNK         0.0873 
     77 H77        30.0830   23.4969    0.3606 H         1 UNK         0.0745 
     78 H78        30.4811   22.2150    1.4676 H         1 UNK         0.0745 
     79 H79        33.6076   22.0526   -0.8541 H         1 UNK         0.0705 
     80 H80        33.0814   21.4910    0.7134 H         1 UNK         0.0705 
     81 H81        32.7229   23.0469    2.4852 H         1 UNK         0.1334 
     82 H82        32.6594   27.2596    1.7231 H         1 UNK         0.1417 
     83 H83        32.9993   24.5042   -1.5385 H         1 UNK         0.1562 
     84 H84        33.8602   27.1544   -1.5104 H         1 UNK         0.0748 
     85 H85        32.8958   28.1343   -0.4470 H         1 UNK         0.0748 
     86 H86        30.1299   26.3053   -0.4670 H         1 UNK         0.0940 
     87 H87        29.2735   26.7190   -1.9071 H         1 UNK         0.0940 
     88 H88        30.0144   29.2663   -1.2068 H         1 UNK         0.0703 
     89 H89        27.6014   27.8556   -1.0668 H         1 UNK         0.3081 
     90 H90        25.5770   29.9198    0.8109 H         1 UNK         0.0719 
     91 H91        25.5227   30.1073   -2.2487 H         1 UNK         0.0809 
     92 H92        24.1892   30.4873   -1.1570 H         1 UNK         0.0809 
     93 H93        25.6377   31.4762   -1.1516 H         1 UNK         0.0809 
     94 H94        24.6470   28.0738   -1.0199 H         1 UNK         0.2990 
     95 H95        23.8139   26.0285    0.2575 H         1 UNK         0.0690 
     96 H96        26.2161   25.2001   -1.4935 H         1 UNK         0.0788 
     97 H97        24.8241   26.1223   -2.0493 H         1 UNK         0.0788 
     98 H98        24.6218   24.4565   -1.5560 H         1 UNK         0.0788 
     99 H99        26.2090   24.9169    1.4646 H         1 UNK         0.2993 
    100 H100       25.7275   23.1727    3.0993 H         1 UNK         0.0949 
    101 H101       23.9859   20.9403    1.9160 H         1 UNK         0.0767 
    102 H102       24.9316   20.8433    3.4010 H         1 UNK         0.0767 
    103 H103       23.5663   21.9427    3.2989 H         1 UNK         0.0767 
    104 H104       26.2541   21.1544    1.0340 H         1 UNK         0.3013 
    105 H105       28.5585   27.4759    1.5292 H         1 UNK         0.3121 
    106 H106       30.7872   27.6884    3.2973 H         1 UNK         0.0774 
    107 H107       29.1316   26.9597    5.0199 H         1 UNK         0.0815 
    108 H108       27.8105   27.2484    3.8953 H         1 UNK         0.0815 
    109 H109       28.9892   25.9814    3.5663 H         1 UNK         0.0815 
    110 H110       28.0158   29.8025    2.6817 H         1 UNK         0.2987 
    111 H111       28.5649   31.6311    4.8744 H         1 UNK         0.0949 
    112 H112       26.7981   31.9526    2.3845 H         1 UNK         0.0806 
    113 H113       26.2647   31.3758    3.9630 H         1 UNK         0.0806 
    114 H114       26.8239   33.0292    3.7726 H         1 UNK         0.0806 
    115 H115       29.1883   31.5781    1.3427 H         1 UNK         0.3010 
    116 H116       30.4247   34.1075    1.1317 H         1 UNK         0.0829 
    117 H117       31.2493   33.2320   -1.0607 H         1 UNK         0.0813 
    118 H118       30.7845   31.6003   -0.5977 H         1 UNK         0.0813 
    119 H119       29.5537   32.8416   -0.8156 H         1 UNK         0.0813 
    120 H120       31.9192   30.8632    1.6226 H         1 UNK         0.3038 
    121 H121       34.6152   31.9350    1.8466 H         1 UNK         0.0769 
    122 H122       35.1749   29.5735    2.4055 H         1 UNK         0.0811 
    123 H123       34.1490   29.6430    0.9801 H         1 UNK         0.0811 
    124 H124       33.4661   29.1901    2.5434 H         1 UNK         0.0811 
    125 H125       31.9837   31.6295    4.0442 H         1 UNK         0.3204 
    126 H126       31.6223   31.8847    6.2002 H         1 UNK         0.0748 
    127 H127       33.0751   33.3426    7.5677 H         1 UNK         0.0771 
    128 H128       34.3689   33.2365    6.3843 H         1 UNK         0.0771 
    129 H129       32.8553   34.0411    5.9710 H         1 UNK         0.0771 
    130 H130       32.0420   29.4353    5.6402 H         1 UNK         0.2980 
    131 H131       34.2056   28.0881    6.9709 H         1 UNK         0.0545 
    132 H132       33.0306   27.2100   10.2118 H         1 UNK         0.3459 
    133 H133       34.2259   26.9089    8.9779 H         1 UNK         0.3459 
    134 H134       32.8017   26.0125    6.5809 H         1 UNK         0.0616 
    135 H135       31.5116   27.0259    5.9742 H         1 UNK         0.0616 
    136 H136       32.8753   24.5489    4.3362 H         1 UNK         0.0634 
    137 H137       31.4454   25.4829    3.9755 H         1 UNK         0.0634 
@<TRIPOS>BOND
     1    1    2 1    
     2    1   72 1    
     3    1   73 1    
     4    1   74 1    
     5    2    3 2    
     6    2    4 am   BACKBONE|DICT|INTERRES
     7    4    5 1    
     8    4   75 1    
     9    5    6 1    
    10    5   35 1    
    11    5   76 1    
    12    6    7 1    
    13    6   77 1    
    14    6   78 1    
    15    7    8 1    
    16    8    9 1    
    17    8   79 1    
    18    8   80 1    
    19    9   10 ar   
    20    9   14 ar   
    21   10   11 ar   
    22   10   81 1    
    23   11   12 ar   
    24   11   71 1    
    25   12   13 ar   
    26   12   82 1    
    27   13   14 ar   
    28   13   15 1    
    29   14   83 1    
    30   15   16 1    
    31   15   84 1    
    32   15   85 1    
    33   16   17 1    
    34   17   18 1    
    35   17   86 1    
    36   17   87 1    
    37   18   19 1    
    38   18   37 1    
    39   18   88 1    
    40   19   20 am   BACKBONE|DICT|INTERRES
    41   19   89 1    
    42   20   21 2    
    43   20   22 1    
    44   22   23 1    
    45   22   24 1    
    46   22   90 1    
    47   23   91 1    
    48   23   92 1    
    49   23   93 1    
    50   24   25 am   BACKBONE|DICT|INTERRES
    51   24   94 1    
    52   25   26 2    
    53   25   27 1    
    54   27   28 1    
    55   27   29 1    
    56   27   95 1    
    57   28   96 1    
    58   28   97 1    
    59   28   98 1    
    60   29   30 am   BACKBONE|DICT|INTERRES
    61   29   99 1    
    62   30   31 2    
    63   30   32 1    
    64   32   33 1    
    65   32   34 1    
    66   32  100 1    
    67   33  101 1    
    68   33  102 1    
    69   33  103 1    
    70   34   35 am   BACKBONE|DICT|INTERRES
    71   34  104 1    
    72   35   36 2    
    73   37   38 2    
    74   37   39 am   BACKBONE|DICT|INTERRES
    75   39   40 1    
    76   39  105 1    
    77   40   41 1    
    78   40   42 1    
    79   40  106 1    
    80   41  107 1    
    81   41  108 1    
    82   41  109 1    
    83   42   43 2    
    84   42   44 am   BACKBONE|DICT|INTERRES
    85   44   45 1    
    86   44  110 1    
    87   45   46 1    
    88   45   47 1    
    89   45  111 1    
    90   46  112 1    
    91   46  113 1    
    92   46  114 1    
    93   47   48 2    
    94   47   49 am   BACKBONE|DICT|INTERRES
    95   49   50 1    
    96   49  115 1    
    97   50   51 1    
    98   50   52 1    
    99   50  116 1    
   100   51  117 1    
   101   51  118 1    
   102   51  119 1    
   103   52   53 2    
   104   52   54 am   BACKBONE|DICT|INTERRES
   105   54   55 1    
   106   54  120 1    
   107   55   56 1    
   108   55   57 1    
   109   55  121 1    
   110   56  122 1    
   111   56  123 1    
   112   56  124 1    
   113   57   58 2    
   114   57   59 am   BACKBONE|DICT|INTERRES
   115   59   60 1    
   116   59  125 1    
   117   60   61 1    
   118   60   62 1    
   119   60  126 1    
   120   61  127 1    
   121   61  128 1    
   122   61  129 1    
   123   62   63 2    
   124   62   64 am   BACKBONE|DICT|INTERRES
   125   64   65 1    
   126   64  130 1    
   127   65   66 1    
   128   65   69 1    
   129   65  131 1    
   130   66   67 am   BACKBONE|DICT|INTERRES
   131   66   68 2    
   132   67  132 1    
   133   67  133 1    
   134   69   70 1    
   135   69  134 1    
   136   69  135 1    
   137   70   71 1    
   138   71  136 1    
   139   71  137 1    
@<TRIPOS>SUBSTRUCTURE
     1 UNK         1 GROUP             0       ****    0 ROOT    
