@<TRIPOS>MOLECULE
3R136
137   139    1
SMALL
USER_CHARGES


@<TRIPOS>ATOM
      1 CA         28.4691   24.4813    3.6196 C.3       0 UNK        -0.1979 
      2 C          29.1080   23.7226    2.4676 C.2       0 UNK         0.4864 
      3 O          28.6947   22.6026    2.1654 O.2       0 UNK        -0.5359 
      4 N          30.1144   24.3258    1.8206 N.am      1 UNK        -0.4318 
      5 CA         30.8104   23.7768    0.6498 C.3       1 UNK         0.0824 
      6 C6         32.1670   24.4796    0.3895 C.3       12 UNK        -0.0944 
      7 S7         32.0541   26.2994    0.2498 S.3       12 UNK        -0.2672 
      8 C8         33.0085   26.8596    1.6931 C.3       12 UNK         0.0333 
      9 C9         32.2363   26.6833    2.9933 C.ar      12 UNK        -0.0807 
     10 C10        32.4327   25.5459    3.7843 C.ar      12 UNK        -0.0894 
     11 C11        31.7216   25.3787    4.9756 C.ar      12 UNK        -0.0804 
     12 C12        30.8377   26.3777    5.3926 C.ar      12 UNK        -0.0824 
     13 C13        30.6403   27.5236    4.6183 C.ar      12 UNK        -0.0762 
     14 C14        31.3281   27.6630    3.4097 C.ar      12 UNK        -0.0782 
     15 C15        29.6958   28.6104    5.1092 C.3       12 UNK         0.0230 
     16 S16        27.9497   28.1672    4.8288 S.3       12 UNK        -0.2608 
     17 C17        27.4354   29.3260    3.5140 C.3       12 UNK        -0.0989 
     18 CA         26.9682   28.6140    2.2145 C.3       5 UNK         0.0716 
     19 N          25.8791   27.6504    2.4202 N.am      5 UNK        -0.4135 
     20 C          24.6262   27.9172    2.8154 C.2       4 UNK         0.5031 
     21 O          24.2166   29.0447    3.0981 O.2       4 UNK        -0.5229 
     22 CA         23.6609   26.7150    2.8683 C.3       4 UNK         0.0329 
     23 CB         22.2356   27.1115    3.2986 C.3       4 UNK        -0.2001 
     24 N          23.5938   26.0462    1.5666 N.am      4 UNK        -0.4303 
     25 C          24.4664   25.1307    1.1276 C.2       3 UNK         0.5044 
     26 O          25.3723   24.6786    1.8307 O.2       3 UNK        -0.5152 
     27 CA         24.3387   24.6721   -0.3429 C.3       3 UNK         0.0319 
     28 CB         23.5087   25.6348   -1.2217 C.3       3 UNK        -0.2001 
     29 N          25.6428   24.4237   -0.9749 N.am      3 UNK        -0.4354 
     30 C          26.6827   25.2688   -1.0327 C.2       2 UNK         0.4964 
     31 O          26.6937   26.4002   -0.5415 O.2       2 UNK        -0.5047 
     32 CA         27.9448   24.7627   -1.7302 C.3       2 UNK         0.0288 
     33 CB         28.3800   25.7058   -2.8663 C.3       2 UNK        -0.2113 
     34 N          28.9815   24.6971   -0.7103 N.am      2 UNK        -0.4145 
     35 C          29.9238   23.7522   -0.6149 C.2       1 UNK         0.5006 
     36 O          30.0969   22.8697   -1.4581 O.2       1 UNK        -0.5103 
     37 C          26.6231   29.6162    1.0890 C.2       5 UNK         0.5055 
     38 O          26.6792   30.8310    1.2964 O.2       5 UNK        -0.5220 
     39 N          26.2738   29.0881   -0.0938 N.am      6 UNK        -0.4450 
     40 CA         26.1277   29.8655   -1.3298 C.3       6 UNK         0.0367 
     41 CB         25.3989   29.0282   -2.3925 C.3       6 UNK        -0.1929 
     42 C          27.4900   30.3504   -1.8567 C.2       6 UNK         0.5070 
     43 O          27.5678   31.4306   -2.4424 O.2       6 UNK        -0.5237 
     44 N          28.5372   29.5597   -1.5948 N.am      7 UNK        -0.4739 
     45 CA         29.9354   29.9677   -1.6643 C.3       7 UNK         0.0276 
     46 CB         30.7541   28.8481   -2.3255 C.3       7 UNK        -0.1927 
     47 C          30.4170   30.2228   -0.2287 C.2       7 UNK         0.5013 
     48 O          29.9866   29.5208    0.6905 O.2       7 UNK        -0.5193 
     49 N          31.2983   31.2123   -0.0638 N.am      8 UNK        -0.4253 
     50 CA         31.8786   31.6207    1.2131 C.3       8 UNK         0.0242 
     51 CB         31.2764   32.9784    1.6175 C.3       8 UNK        -0.2000 
     52 C          33.4007   31.7331    1.0256 C.2       8 UNK         0.4948 
     53 O          33.8201   32.2710   -0.0007 O.2       8 UNK        -0.5275 
     54 N          34.2395   31.2740    1.9621 N.am      9 UNK        -0.4246 
     55 CA         33.9613   30.5131    3.1790 C.3       9 UNK         0.0261 
     56 CB         33.5614   31.4532    4.3313 C.3       9 UNK        -0.1959 
     57 C          35.2201   29.7079    3.5239 C.2       9 UNK         0.5033 
     58 O          36.2980   30.0131    3.0035 O.2       9 UNK        -0.5390 
     59 N          35.0619   28.7004    4.3880 N.am      10 UNK        -0.4215 
     60 CA         36.1456   27.8293    4.8418 C.3       10 UNK         0.0240 
     61 CB         36.2664   26.5942    3.9290 C.3       10 UNK        -0.1982 
     62 C          35.9378   27.4356    6.3064 C.2       10 UNK         0.4970 
     63 O          36.8228   27.6816    7.1267 O.2       10 UNK        -0.4916 
     64 N          34.7798   26.8342    6.6077 N.am      11 UNK        -0.4279 
     65 CA         34.4113   26.3757    7.9552 C.3       11 UNK         0.1003 
     66 C          34.1621   27.5465    8.9454 C.2       11 UNK         0.5709 
     67 N          34.4169   27.3368   10.2299 N.am      11 UNK        -0.7358 
     68 O          33.7055   28.6242    8.5670 O.2       11 UNK        -0.4999 
     69 C69        33.1980   25.4104    7.9271 C.3       12 UNK        -0.0954 
     70 S70        33.4173   24.0360    6.7439 S.3       12 UNK        -0.2268 
     71 C71        31.8688   24.0994    5.7892 C.3       12 UNK         0.0203 
     72 H72        28.6765   25.5485    3.5561 H         1 UNK         0.0888 
     73 H73        27.3877   24.3503    3.6081 H         1 UNK         0.0888 
     74 H74        28.8476   24.1115    4.5718 H         1 UNK         0.0888 
     75 H75        30.4436   25.2308    2.1313 H         1 UNK         0.3017 
     76 H76        31.0342   22.7318    0.8759 H         1 UNK         0.0873 
     77 H77        32.8649   24.2203    1.1855 H         1 UNK         0.0745 
     78 H78        32.6278   24.0958   -0.5229 H         1 UNK         0.0745 
     79 H79        33.9625   26.3318    1.7328 H         1 UNK         0.0705 
     80 H80        33.2543   27.9119    1.5495 H         1 UNK         0.0705 
     81 H81        33.1233   24.7768    3.4664 H         1 UNK         0.1334 
     82 H82        30.2858   26.2588    6.3153 H         1 UNK         0.1417 
     83 H83        31.1577   28.5353    2.7939 H         1 UNK         0.1562 
     84 H84        29.9422   29.5689    4.6513 H         1 UNK         0.0748 
     85 H85        29.8448   28.7527    6.1807 H         1 UNK         0.0748 
     86 H86        28.2579   30.0048    3.2826 H         1 UNK         0.0940 
     87 H87        26.6380   29.9547    3.9138 H         1 UNK         0.0940 
     88 H88        27.8151   28.0336    1.8439 H         1 UNK         0.0703 
     89 H89        26.0914   26.6883    2.1831 H         1 UNK         0.3081 
     90 H90        24.0500   26.0200    3.6158 H         1 UNK         0.0719 
     91 H91        21.7831   27.8175    2.6011 H         1 UNK         0.0809 
     92 H92        21.5843   26.2397    3.3637 H         1 UNK         0.0809 
     93 H93        22.2418   27.5827    4.2824 H         1 UNK         0.0809 
     94 H94        22.8994   26.3921    0.9200 H         1 UNK         0.2990 
     95 H95        23.8220   23.7118   -0.3172 H         1 UNK         0.0690 
     96 H96        23.4902   25.3019   -2.2596 H         1 UNK         0.0788 
     97 H97        23.9169   26.6451   -1.2084 H         1 UNK         0.0788 
     98 H98        22.4706   25.6870   -0.8915 H         1 UNK         0.0788 
     99 H99        25.7606   23.4988   -1.3642 H         1 UNK         0.2993 
    100 H100       27.7574   23.7687   -2.1426 H         1 UNK         0.0949 
    101 H101       27.6094   25.7699   -3.6354 H         1 UNK         0.0767 
    102 H102       28.5653   26.7176   -2.5053 H         1 UNK         0.0767 
    103 H103       29.2922   25.3515   -3.3465 H         1 UNK         0.0767 
    104 H104       28.8946   25.3723    0.0367 H         1 UNK         0.3013 
    105 H105       26.2871   28.0724   -0.1956 H         1 UNK         0.3121 
    106 H106       25.5212   30.7479   -1.1147 H         1 UNK         0.0774 
    107 H107       25.3138   29.5785   -3.3305 H         1 UNK         0.0815 
    108 H108       25.9240   28.0969   -2.6077 H         1 UNK         0.0815 
    109 H109       24.3868   28.7827   -2.0731 H         1 UNK         0.0815 
    110 H110       28.3633   28.7272   -1.0493 H         1 UNK         0.2987 
    111 H111       30.0429   30.8829   -2.2511 H         1 UNK         0.0949 
    112 H112       31.8140   29.1032   -2.3590 H         1 UNK         0.0806 
    113 H113       30.6615   27.9073   -1.7830 H         1 UNK         0.0806 
    114 H114       30.4281   28.6736   -3.3509 H         1 UNK         0.0806 
    115 H115       31.6694   31.6942   -0.8722 H         1 UNK         0.3010 
    116 H116       31.6320   30.8944    1.9850 H         1 UNK         0.0829 
    117 H117       30.2007   32.8994    1.7767 H         1 UNK         0.0813 
    118 H118       31.7155   33.3507    2.5428 H         1 UNK         0.0813 
    119 H119       31.4452   33.7381    0.8531 H         1 UNK         0.0813 
    120 H120       35.2357   31.3401    1.7863 H         1 UNK         0.3038 
    121 H121       33.1694   29.7898    2.9967 H         1 UNK         0.0769 
    122 H122       34.3111   32.2286    4.4944 H         1 UNK         0.0811 
    123 H123       33.4500   30.9074    5.2692 H         1 UNK         0.0811 
    124 H124       32.6084   31.9434    4.1413 H         1 UNK         0.0811 
    125 H125       34.1589   28.5610    4.8193 H         1 UNK         0.3204 
    126 H126       37.0907   28.3756    4.7972 H         1 UNK         0.0748 
    127 H127       36.4943   26.8831    2.9028 H         1 UNK         0.0771 
    128 H128       37.0699   25.9381    4.2661 H         1 UNK         0.0771 
    129 H129       35.3497   26.0052    3.9135 H         1 UNK         0.0771 
    130 H130       34.1117   26.6267    5.8815 H         1 UNK         0.2980 
    131 H131       35.2655   25.8101    8.3337 H         1 UNK         0.0545 
    132 H132       34.2477   28.0800   10.8895 H         1 UNK         0.3459 
    133 H133       34.7798   26.4534   10.5532 H         1 UNK         0.3459 
    134 H134       33.0437   24.9721    8.9146 H         1 UNK         0.0616 
    135 H135       32.2833   25.9571    7.6991 H         1 UNK         0.0616 
    136 H136       31.0257   23.9758    6.4707 H         1 UNK         0.0634 
    137 H137       31.8396   23.2423    5.1148 H         1 UNK         0.0634 
@<TRIPOS>BOND
     1    1    2 1    
     2    1   72 1    
     3    1   73 1    
     4    1   74 1    
     5    2    3 2    
     6    2    4 am   BACKBONE|DICT|INTERRES
     7    4    5 1    
     8    4   75 1    
     9    5    6 1    
    10    5   35 1    
    11    5   76 1    
    12    6    7 1    
    13    6   77 1    
    14    6   78 1    
    15    7    8 1    
    16    8    9 1    
    17    8   79 1    
    18    8   80 1    
    19    9   10 ar   
    20    9   14 ar   
    21   10   11 ar   
    22   10   81 1    
    23   11   12 ar   
    24   11   71 1    
    25   12   13 ar   
    26   12   82 1    
    27   13   14 ar   
    28   13   15 1    
    29   14   83 1    
    30   15   16 1    
    31   15   84 1    
    32   15   85 1    
    33   16   17 1    
    34   17   18 1    
    35   17   86 1    
    36   17   87 1    
    37   18   19 1    
    38   18   37 1    
    39   18   88 1    
    40   19   20 am   BACKBONE|DICT|INTERRES
    41   19   89 1    
    42   20   21 2    
    43   20   22 1    
    44   22   23 1    
    45   22   24 1    
    46   22   90 1    
    47   23   91 1    
    48   23   92 1    
    49   23   93 1    
    50   24   25 am   BACKBONE|DICT|INTERRES
    51   24   94 1    
    52   25   26 2    
    53   25   27 1    
    54   27   28 1    
    55   27   29 1    
    56   27   95 1    
    57   28   96 1    
    58   28   97 1    
    59   28   98 1    
    60   29   30 am   BACKBONE|DICT|INTERRES
    61   29   99 1    
    62   30   31 2    
    63   30   32 1    
    64   32   33 1    
    65   32   34 1    
    66   32  100 1    
    67   33  101 1    
    68   33  102 1    
    69   33  103 1    
    70   34   35 am   BACKBONE|DICT|INTERRES
    71   34  104 1    
    72   35   36 2    
    73   37   38 2    
    74   37   39 am   BACKBONE|DICT|INTERRES
    75   39   40 1    
    76   39  105 1    
    77   40   41 1    
    78   40   42 1    
    79   40  106 1    
    80   41  107 1    
    81   41  108 1    
    82   41  109 1    
    83   42   43 2    
    84   42   44 am   BACKBONE|DICT|INTERRES
    85   44   45 1    
    86   44  110 1    
    87   45   46 1    
    88   45   47 1    
    89   45  111 1    
    90   46  112 1    
    91   46  113 1    
    92   46  114 1    
    93   47   48 2    
    94   47   49 am   BACKBONE|DICT|INTERRES
    95   49   50 1    
    96   49  115 1    
    97   50   51 1    
    98   50   52 1    
    99   50  116 1    
   100   51  117 1    
   101   51  118 1    
   102   51  119 1    
   103   52   53 2    
   104   52   54 am   BACKBONE|DICT|INTERRES
   105   54   55 1    
   106   54  120 1    
   107   55   56 1    
   108   55   57 1    
   109   55  121 1    
   110   56  122 1    
   111   56  123 1    
   112   56  124 1    
   113   57   58 2    
   114   57   59 am   BACKBONE|DICT|INTERRES
   115   59   60 1    
   116   59  125 1    
   117   60   61 1    
   118   60   62 1    
   119   60  126 1    
   120   61  127 1    
   121   61  128 1    
   122   61  129 1    
   123   62   63 2    
   124   62   64 am   BACKBONE|DICT|INTERRES
   125   64   65 1    
   126   64  130 1    
   127   65   66 1    
   128   65   69 1    
   129   65  131 1    
   130   66   67 am   BACKBONE|DICT|INTERRES
   131   66   68 2    
   132   67  132 1    
   133   67  133 1    
   134   69   70 1    
   135   69  134 1    
   136   69  135 1    
   137   70   71 1    
   138   71  136 1    
   139   71  137 1    
@<TRIPOS>SUBSTRUCTURE
     1 UNK         1 GROUP             0       ****    0 ROOT    
