@<TRIPOS>MOLECULE
3R136
137   139    1
SMALL
USER_CHARGES


@<TRIPOS>ATOM
      1 CA         28.0659   20.8080    5.8140 C.3       0 UNK        -0.1979 
      2 C          28.6709   21.8870    4.9283 C.2       0 UNK         0.4864 
      3 O          29.4576   22.6998    5.4155 O.2       0 UNK        -0.5359 
      4 N          28.3088   21.8914    3.6370 N.am      1 UNK        -0.4318 
      5 CA         28.7360   22.8466    2.6072 C.3       1 UNK         0.0824 
      6 C6         30.2632   22.8230    2.3213 C.3       12 UNK        -0.0944 
      7 S7         30.8267   21.2101    1.6826 S.3       12 UNK        -0.2672 
      8 C8         32.6211   21.5043    1.5121 C.3       12 UNK         0.0333 
      9 C9         32.9284   22.7495    0.6893 C.ar      12 UNK        -0.0807 
     10 C10        33.6763   23.7929    1.2440 C.ar      12 UNK        -0.0894 
     11 C11        33.8904   24.9722    0.5255 C.ar      12 UNK        -0.0804 
     12 C12        33.3624   25.0996   -0.7623 C.ar      12 UNK        -0.0824 
     13 C13        32.6164   24.0618   -1.3279 C.ar      12 UNK        -0.0762 
     14 C14        32.4197   22.8821   -0.6063 C.ar      12 UNK        -0.0782 
     15 C15        31.9795   24.2282   -2.6982 C.3       12 UNK         0.0230 
     16 S16        30.2383   24.7414   -2.5489 S.3       12 UNK        -0.2608 
     17 C17        30.4274   26.4209   -1.8628 C.3       12 UNK        -0.0989 
     18 CA         29.1609   27.2882   -2.0616 C.3       5 UNK         0.0716 
     19 N          28.0281   26.8122   -1.2642 N.am      5 UNK        -0.4135 
     20 C          26.9152   26.2566   -1.7670 C.2       4 UNK         0.5031 
     21 O          26.7049   26.1010   -2.9710 O.2       4 UNK        -0.5229 
     22 CA         25.8398   25.7847   -0.7662 C.3       4 UNK         0.0329 
     23 CB         26.0003   24.2819   -0.4866 C.3       4 UNK        -0.2001 
     24 N          25.8611   26.5180    0.5014 N.am      4 UNK        -0.4303 
     25 C          25.5980   27.8280    0.6189 C.2       3 UNK         0.5044 
     26 O          25.1615   28.5184   -0.3025 O.2       3 UNK        -0.5152 
     27 CA         25.9105   28.5080    1.9647 C.3       3 UNK         0.0319 
     28 CB         24.6150   28.8671    2.7096 C.3       3 UNK        -0.2001 
     29 N          26.7895   27.7600    2.8690 N.am      3 UNK        -0.4354 
     30 C          28.0301   27.3268    2.6041 C.2       2 UNK         0.4964 
     31 O          28.5905   27.4659    1.5153 O.2       2 UNK        -0.5047 
     32 CA         28.7601   26.5669    3.7229 C.3       2 UNK         0.0288 
     33 CB         28.0407   26.6040    5.0920 C.3       2 UNK        -0.2113 
     34 N          29.0491   25.1822    3.3407 N.am      2 UNK        -0.4145 
     35 C          28.1790   24.2528    2.9155 C.2       1 UNK         0.5006 
     36 O          26.9736   24.4612    2.7552 O.2       1 UNK        -0.5103 
     37 C          29.4710   28.7650   -1.7585 C.2       5 UNK         0.5055 
     38 O          29.6388   29.5398   -2.7020 O.2       5 UNK        -0.5220 
     39 N          29.5723   29.1383   -0.4751 N.am      6 UNK        -0.4450 
     40 CA         30.0166   30.4586   -0.0354 C.3       6 UNK         0.0367 
     41 CB         31.5483   30.5754   -0.1730 C.3       6 UNK        -0.1929 
     42 C          29.5572   30.6993    1.4060 C.2       6 UNK         0.5070 
     43 O          30.2533   30.3136    2.3488 O.2       6 UNK        -0.5237 
     44 N          28.3993   31.3551    1.5597 N.am      7 UNK        -0.4739 
     45 CA         27.8125   31.7227    2.8563 C.3       7 UNK         0.0276 
     46 CB         26.4167   32.3296    2.6333 C.3       7 UNK        -0.1927 
     47 C          28.6832   32.6925    3.6758 C.2       7 UNK         0.5013 
     48 O          28.6546   32.6374    4.9046 O.2       7 UNK        -0.5193 
     49 N          29.4499   33.5455    2.9806 N.am      8 UNK        -0.4253 
     50 CA         30.4165   34.4721    3.5736 C.3       8 UNK         0.0242 
     51 CB         30.8367   35.5119    2.5219 C.3       8 UNK        -0.2000 
     52 C          31.6529   33.7625    4.1536 C.2       8 UNK         0.4948 
     53 O          32.2149   34.2488    5.1357 O.2       8 UNK        -0.5275 
     54 N          32.0537   32.6366    3.5443 N.am      9 UNK        -0.4246 
     55 CA         33.1405   31.7845    4.0297 C.3       9 UNK         0.0261 
     56 CB         33.7357   30.9753    2.8657 C.3       9 UNK        -0.1959 
     57 C          32.6540   30.8478    5.1439 C.2       9 UNK         0.5033 
     58 O          33.3627   30.6769    6.1364 O.2       9 UNK        -0.5390 
     59 N          31.4599   30.2625    4.9511 N.am      10 UNK        -0.4215 
     60 CA         30.7768   29.3234    5.8508 C.3       10 UNK         0.0240 
     61 CB         30.3560   30.0201    7.1616 C.3       10 UNK        -0.1982 
     62 C          31.5675   28.0193    6.0889 C.2       10 UNK         0.4970 
     63 O          31.4530   27.4121    7.1538 O.2       10 UNK        -0.4916 
     64 N          32.3355   27.6021    5.0761 N.am      11 UNK        -0.4279 
     65 CA         33.2164   26.4226    5.0346 C.3       11 UNK         0.1003 
     66 C          32.5074   25.0311    5.0334 C.2       11 UNK         0.5709 
     67 N          31.2735   24.9249    5.5048 N.am      11 UNK        -0.7358 
     68 O          33.0868   24.0301    4.6221 O.2       11 UNK        -0.4999 
     69 C69        34.2922   26.5898    3.9228 C.3       12 UNK        -0.0954 
     70 S70        33.6240   27.0784    2.2903 S.3       12 UNK        -0.2268 
     71 C71        34.6681   26.1210    1.1464 C.3       12 UNK         0.0203 
     72 H72        27.3945   20.1524    5.2597 H         1 UNK         0.0888 
     73 H73        28.8553   20.1956    6.2489 H         1 UNK         0.0888 
     74 H74        27.5012   21.2642    6.6266 H         1 UNK         0.0888 
     75 H75        27.6438   21.2005    3.3190 H         1 UNK         0.3017 
     76 H76        28.2353   22.5367    1.6885 H         1 UNK         0.0873 
     77 H77        30.5093   23.5819    1.5761 H         1 UNK         0.0745 
     78 H78        30.8466   23.0592    3.2116 H         1 UNK         0.0745 
     79 H79        33.0824   20.6370    1.0383 H         1 UNK         0.0705 
     80 H80        33.0563   21.5829    2.5100 H         1 UNK         0.0705 
     81 H81        34.0686   23.7028    2.2474 H         1 UNK         0.1334 
     82 H82        33.5102   26.0177   -1.3143 H         1 UNK         0.1417 
     83 H83        31.8257   22.0852   -1.0332 H         1 UNK         0.1562 
     84 H84        32.0259   23.2844   -3.2435 H         1 UNK         0.0748 
     85 H85        32.5303   24.9545   -3.2980 H         1 UNK         0.0748 
     86 H86        31.2859   26.8870   -2.3512 H         1 UNK         0.0940 
     87 H87        30.6804   26.3422   -0.8032 H         1 UNK         0.0940 
     88 H88        28.9032   27.2530   -3.1225 H         1 UNK         0.0703 
     89 H89        28.1086   26.9231   -0.2582 H         1 UNK         0.3081 
     90 H90        24.8635   25.9455   -1.2285 H         1 UNK         0.0719 
     91 H91        25.9076   23.7032   -1.4067 H         1 UNK         0.0809 
     92 H92        25.2378   23.9195    0.2032 H         1 UNK         0.0809 
     93 H93        26.9772   24.0549   -0.0586 H         1 UNK         0.0809 
     94 H94        26.1981   26.0157    1.3146 H         1 UNK         0.2990 
     95 H95        26.4296   29.4320    1.7156 H         1 UNK         0.0690 
     96 H96        24.8201   29.4619    3.6000 H         1 UNK         0.0788 
     97 H97        24.0675   27.9753    3.0174 H         1 UNK         0.0788 
     98 H98        23.9491   29.4565    2.0774 H         1 UNK         0.0788 
     99 H99        26.4087   27.5452    3.7793 H         1 UNK         0.2993 
    100 H100       29.7246   27.0626    3.8305 H         1 UNK         0.0949 
    101 H101       28.6465   26.1299    5.8641 H         1 UNK         0.0767 
    102 H102       27.8541   27.6269    5.4215 H         1 UNK         0.0767 
    103 H103       27.0846   26.0795    5.0693 H         1 UNK         0.0767 
    104 H104       30.0120   24.8990    3.4582 H         1 UNK         0.3013 
    105 H105       29.3650   28.4771    0.2741 H         1 UNK         0.3121 
    106 H106       29.5579   31.2228   -0.6667 H         1 UNK         0.0774 
    107 H107       32.0594   29.7569    0.3350 H         1 UNK         0.0815 
    108 H108       31.9139   31.5104    0.2528 H         1 UNK         0.0815 
    109 H109       31.8558   30.5578   -1.2185 H         1 UNK         0.0815 
    110 H110       27.8842   31.6314    0.7353 H         1 UNK         0.2987 
    111 H111       27.7041   30.8083    3.4443 H         1 UNK         0.0949 
    112 H112       26.4666   33.2577    2.0625 H         1 UNK         0.0806 
    113 H113       25.7559   31.6474    2.1001 H         1 UNK         0.0806 
    114 H114       25.9373   32.5603    3.5858 H         1 UNK         0.0806 
    115 H115       29.3828   33.5328    1.9734 H         1 UNK         0.3010 
    116 H116       29.9230   34.9968    4.3949 H         1 UNK         0.0829 
    117 H117       29.9787   36.0768    2.1568 H         1 UNK         0.0813 
    118 H118       31.5390   36.2315    2.9453 H         1 UNK         0.0813 
    119 H119       31.3246   35.0476    1.6639 H         1 UNK         0.0813 
    120 H120       31.5118   32.2866    2.7675 H         1 UNK         0.3038 
    121 H121       33.9323   32.4165    4.4385 H         1 UNK         0.0769 
    122 H122       33.0110   30.2818    2.4401 H         1 UNK         0.0811 
    123 H123       34.5875   30.3823    3.2016 H         1 UNK         0.0811 
    124 H124       34.0894   31.6266    2.0664 H         1 UNK         0.0811 
    125 H125       30.9914   30.4255    4.0606 H         1 UNK         0.3204 
    126 H126       29.8631   29.0347    5.3318 H         1 UNK         0.0748 
    127 H127       29.7898   30.9299    6.9608 H         1 UNK         0.0771 
    128 H128       29.7202   29.3706    7.7645 H         1 UNK         0.0771 
    129 H129       31.2182   30.2895    7.7723 H         1 UNK         0.0771 
    130 H130       32.3410   28.1519    4.2297 H         1 UNK         0.2980 
    131 H131       33.7623   26.4246    5.9795 H         1 UNK         0.0545 
    132 H132       30.8023   24.0236    5.5243 H         1 UNK         0.3459 
    133 H133       30.8701   25.7116    5.9908 H         1 UNK         0.3459 
    134 H134       34.9893   27.3739    4.2219 H         1 UNK         0.0616 
    135 H135       34.9006   25.6890    3.8316 H         1 UNK         0.0616 
    136 H136       35.0298   26.7945    0.3679 H         1 UNK         0.0634 
    137 H137       35.5586   25.7434    1.6502 H         1 UNK         0.0634 
@<TRIPOS>BOND
     1    1    2 1    
     2    1   72 1    
     3    1   73 1    
     4    1   74 1    
     5    2    3 2    
     6    2    4 am   BACKBONE|DICT|INTERRES
     7    4    5 1    
     8    4   75 1    
     9    5    6 1    
    10    5   35 1    
    11    5   76 1    
    12    6    7 1    
    13    6   77 1    
    14    6   78 1    
    15    7    8 1    
    16    8    9 1    
    17    8   79 1    
    18    8   80 1    
    19    9   10 ar   
    20    9   14 ar   
    21   10   11 ar   
    22   10   81 1    
    23   11   12 ar   
    24   11   71 1    
    25   12   13 ar   
    26   12   82 1    
    27   13   14 ar   
    28   13   15 1    
    29   14   83 1    
    30   15   16 1    
    31   15   84 1    
    32   15   85 1    
    33   16   17 1    
    34   17   18 1    
    35   17   86 1    
    36   17   87 1    
    37   18   19 1    
    38   18   37 1    
    39   18   88 1    
    40   19   20 am   BACKBONE|DICT|INTERRES
    41   19   89 1    
    42   20   21 2    
    43   20   22 1    
    44   22   23 1    
    45   22   24 1    
    46   22   90 1    
    47   23   91 1    
    48   23   92 1    
    49   23   93 1    
    50   24   25 am   BACKBONE|DICT|INTERRES
    51   24   94 1    
    52   25   26 2    
    53   25   27 1    
    54   27   28 1    
    55   27   29 1    
    56   27   95 1    
    57   28   96 1    
    58   28   97 1    
    59   28   98 1    
    60   29   30 am   BACKBONE|DICT|INTERRES
    61   29   99 1    
    62   30   31 2    
    63   30   32 1    
    64   32   33 1    
    65   32   34 1    
    66   32  100 1    
    67   33  101 1    
    68   33  102 1    
    69   33  103 1    
    70   34   35 am   BACKBONE|DICT|INTERRES
    71   34  104 1    
    72   35   36 2    
    73   37   38 2    
    74   37   39 am   BACKBONE|DICT|INTERRES
    75   39   40 1    
    76   39  105 1    
    77   40   41 1    
    78   40   42 1    
    79   40  106 1    
    80   41  107 1    
    81   41  108 1    
    82   41  109 1    
    83   42   43 2    
    84   42   44 am   BACKBONE|DICT|INTERRES
    85   44   45 1    
    86   44  110 1    
    87   45   46 1    
    88   45   47 1    
    89   45  111 1    
    90   46  112 1    
    91   46  113 1    
    92   46  114 1    
    93   47   48 2    
    94   47   49 am   BACKBONE|DICT|INTERRES
    95   49   50 1    
    96   49  115 1    
    97   50   51 1    
    98   50   52 1    
    99   50  116 1    
   100   51  117 1    
   101   51  118 1    
   102   51  119 1    
   103   52   53 2    
   104   52   54 am   BACKBONE|DICT|INTERRES
   105   54   55 1    
   106   54  120 1    
   107   55   56 1    
   108   55   57 1    
   109   55  121 1    
   110   56  122 1    
   111   56  123 1    
   112   56  124 1    
   113   57   58 2    
   114   57   59 am   BACKBONE|DICT|INTERRES
   115   59   60 1    
   116   59  125 1    
   117   60   61 1    
   118   60   62 1    
   119   60  126 1    
   120   61  127 1    
   121   61  128 1    
   122   61  129 1    
   123   62   63 2    
   124   62   64 am   BACKBONE|DICT|INTERRES
   125   64   65 1    
   126   64  130 1    
   127   65   66 1    
   128   65   69 1    
   129   65  131 1    
   130   66   67 am   BACKBONE|DICT|INTERRES
   131   66   68 2    
   132   67  132 1    
   133   67  133 1    
   134   69   70 1    
   135   69  134 1    
   136   69  135 1    
   137   70   71 1    
   138   71  136 1    
   139   71  137 1    
@<TRIPOS>SUBSTRUCTURE
     1 UNK         1 GROUP             0       ****    0 ROOT    
