@<TRIPOS>MOLECULE
3R136
137   139    1
SMALL
USER_CHARGES


@<TRIPOS>ATOM
      1 CA         29.3729   22.1578    5.0109 C.3       0 UNK        -0.1979 
      2 C          28.6676   21.1439    4.1213 C.2       0 UNK         0.4864 
      3 O          28.0020   20.2402    4.6299 O.2       0 UNK        -0.5359 
      4 N          28.8140   21.2866    2.7987 N.am      1 UNK        -0.4318 
      5 CA         28.1261   20.4877    1.7806 C.3       1 UNK         0.0824 
      6 C6         28.9395   20.4372    0.4576 C.3       12 UNK        -0.0944 
      7 S7         29.2936   22.0788   -0.2606 S.3       12 UNK        -0.2672 
      8 C8         31.0465   22.3054    0.1686 C.3       12 UNK         0.0333 
      9 C9         31.3971   23.7778    0.3345 C.ar      12 UNK        -0.0807 
     10 C10        31.4547   24.3438    1.6124 C.ar      12 UNK        -0.0894 
     11 C11        31.8373   25.6772    1.7834 C.ar      12 UNK        -0.0804 
     12 C12        32.1697   26.4434    0.6625 C.ar      12 UNK        -0.0824 
     13 C13        32.0809   25.9034   -0.6247 C.ar      12 UNK        -0.0762 
     14 C14        31.6948   24.5674   -0.7818 C.ar      12 UNK        -0.0782 
     15 C15        32.4421   26.7490   -1.8409 C.3       12 UNK         0.0230 
     16 S16        31.0016   27.6164   -2.5514 S.3       12 UNK        -0.2608 
     17 C17        30.6769   28.9072   -1.2967 C.3       12 UNK        -0.0989 
     18 CA         29.3121   28.7504   -0.5656 C.3       5 UNK         0.0716 
     19 N          29.0714   27.3667   -0.1428 N.am      5 UNK        -0.4135 
     20 C          27.8769   26.8061    0.0708 C.2       4 UNK         0.5031 
     21 O          26.8068   27.4186    0.0085 O.2       4 UNK        -0.5229 
     22 CA         27.8918   25.3243    0.4691 C.3       4 UNK         0.0329 
     23 CB         27.9022   25.1801    1.9994 C.3       4 UNK        -0.2001 
     24 N          26.7597   24.5759   -0.0832 N.am      4 UNK        -0.4303 
     25 C          26.5166   24.4015   -1.3909 C.2       3 UNK         0.5044 
     26 O          27.2430   24.8319   -2.2889 O.2       3 UNK        -0.5152 
     27 CA         25.2700   23.5744   -1.7430 C.3       3 UNK         0.0319 
     28 CB         25.1488   23.2628   -3.2475 C.3       3 UNK        -0.2001 
     29 N          25.2865   22.3227   -0.9882 N.am      3 UNK        -0.4354 
     30 C          24.2472   21.8031   -0.3233 C.2       2 UNK         0.4964 
     31 O          23.1223   22.3047   -0.3141 O.2       2 UNK        -0.5047 
     32 CA         24.4886   20.5035    0.4725 C.3       2 UNK         0.0288 
     33 CB         23.8978   19.2991   -0.2799 C.3       2 UNK        -0.2113 
     34 N          25.8946   20.2216    0.7916 N.am      2 UNK        -0.4145 
     35 C          26.6754   20.9825    1.5727 C.2       1 UNK         0.5006 
     36 O          26.2909   22.0362    2.0887 O.2       1 UNK        -0.5103 
     37 C          29.1803   29.7136    0.6375 C.2       5 UNK         0.5055 
     38 O          30.1347   30.4219    0.9543 O.2       5 UNK        -0.5220 
     39 N          28.0244   29.6620    1.3152 N.am      6 UNK        -0.4450 
     40 CA         27.7205   30.2454    2.6241 C.3       6 UNK         0.0367 
     41 CB         26.2404   29.9820    2.9519 C.3       6 UNK        -0.1929 
     42 C          28.0699   31.7386    2.7627 C.2       6 UNK         0.5070 
     43 O          27.2899   32.6001    2.3515 O.2       6 UNK        -0.5237 
     44 N          29.2305   32.0012    3.3660 N.am      7 UNK        -0.4739 
     45 CA         29.7688   33.3067    3.7234 C.3       7 UNK         0.0276 
     46 CB         30.3354   34.0163    2.4800 C.3       7 UNK        -0.1927 
     47 C          30.8729   33.0492    4.7508 C.2       7 UNK         0.5013 
     48 O          31.5861   32.0510    4.6189 O.2       7 UNK        -0.5193 
     49 N          31.0249   33.9484    5.7317 N.am      8 UNK        -0.4253 
     50 CA         31.9651   33.8121    6.8551 C.3       8 UNK         0.0242 
     51 CB         31.7566   34.9792    7.8341 C.3       8 UNK        -0.2000 
     52 C          33.4490   33.7090    6.4520 C.2       8 UNK         0.4948 
     53 O          34.2374   33.1197    7.1918 O.2       8 UNK        -0.5275 
     54 N          33.8009   34.2712    5.2884 N.am      9 UNK        -0.4246 
     55 CA         35.1344   34.1814    4.6923 C.3       9 UNK         0.0261 
     56 CB         35.3128   35.3433    3.7004 C.3       9 UNK        -0.1959 
     57 C          35.4049   32.8354    3.9914 C.2       9 UNK         0.5033 
     58 O          36.5719   32.5265    3.7445 O.2       9 UNK        -0.5390 
     59 N          34.3496   32.0795    3.6565 N.am      10 UNK        -0.4215 
     60 CA         34.4264   30.8269    2.9031 C.3       10 UNK         0.0240 
     61 CB         33.4343   30.8808    1.7297 C.3       10 UNK        -0.1982 
     62 C          34.1380   29.6107    3.7914 C.2       10 UNK         0.4970 
     63 O          34.8895   28.6369    3.7293 O.2       10 UNK        -0.4916 
     64 N          33.0644   29.6811    4.5861 N.am      11 UNK        -0.4279 
     65 CA         32.5885   28.6067    5.4624 C.3       11 UNK         0.1003 
     66 C          32.6989   29.0552    6.9399 C.2       11 UNK         0.5709 
     67 N          33.3324   28.2591    7.7907 N.am      11 UNK        -0.7358 
     68 O          32.1827   30.1001    7.3304 O.2       11 UNK        -0.4999 
     69 C69        31.1319   28.1827    5.1214 C.3       12 UNK        -0.0954 
     70 S70        30.8507   27.7271    3.3750 S.3       12 UNK        -0.2268 
     71 C71        31.9368   26.2787    3.1793 C.3       12 UNK         0.0203 
     72 H72        28.6561   22.6271    5.6842 H         1 UNK         0.0888 
     73 H73        30.1343   21.6634    5.6135 H         1 UNK         0.0888 
     74 H74        29.8546   22.9453    4.4319 H         1 UNK         0.0888 
     75 H75        29.3318   22.0719    2.4353 H         1 UNK         0.3017 
     76 H76        28.0503   19.4635    2.1529 H         1 UNK         0.0873 
     77 H77        29.8796   19.9109    0.6302 H         1 UNK         0.0745 
     78 H78        28.4217   19.8419   -0.2961 H         1 UNK         0.0745 
     79 H79        31.2793   21.7671    1.0885 H         1 UNK         0.0705 
     80 H80        31.6658   21.8574   -0.6098 H         1 UNK         0.0705 
     81 H81        31.2249   23.7389    2.4780 H         1 UNK         0.1334 
     82 H82        32.4963   27.4645    0.8030 H         1 UNK         0.1417 
     83 H83        31.6406   24.1356   -1.7723 H         1 UNK         0.1562 
     84 H84        32.8766   26.1114   -2.6123 H         1 UNK         0.0748 
     85 H85        33.2163   27.4742   -1.5846 H         1 UNK         0.0748 
     86 H86        30.7111   29.8759   -1.7985 H         1 UNK         0.0940 
     87 H87        31.5048   28.9262   -0.5883 H         1 UNK         0.0940 
     88 H88        28.5304   29.0231   -1.2780 H         1 UNK         0.0703 
     89 H89        29.9006   26.7971   -0.0417 H         1 UNK         0.3081 
     90 H90        28.8040   24.8818    0.0700 H         1 UNK         0.0719 
     91 H91        28.7398   25.7221    2.4392 H         1 UNK         0.0809 
     92 H92        28.0032   24.1375    2.2980 H         1 UNK         0.0809 
     93 H93        26.9884   25.5721    2.4475 H         1 UNK         0.0809 
     94 H94        26.1234   24.1638    0.5849 H         1 UNK         0.2990 
     95 H95        24.4104   24.1814   -1.4507 H         1 UNK         0.0690 
     96 H96        25.9956   22.6763   -3.6060 H         1 UNK         0.0788 
     97 H97        25.1116   24.1804   -3.8360 H         1 UNK         0.0788 
     98 H98        24.2383   22.7036   -3.4632 H         1 UNK         0.0788 
     99 H99        26.1832   21.8612   -0.9191 H         1 UNK         0.2993 
    100 H100       23.9539   20.6108    1.4189 H         1 UNK         0.0949 
    101 H101       22.8418   19.4573   -0.5044 H         1 UNK         0.0767 
    102 H102       24.4094   19.1251   -1.2275 H         1 UNK         0.0767 
    103 H103       23.9660   18.3868    0.3132 H         1 UNK         0.0767 
    104 H104       26.2782   19.3732    0.4002 H         1 UNK         0.3013 
    105 H105       27.3248   29.0255    0.9429 H         1 UNK         0.3121 
    106 H106       28.3153   29.6941    3.3554 H         1 UNK         0.0774 
    107 H107       25.9759   30.3959    3.9260 H         1 UNK         0.0815 
    108 H108       25.5774   30.4353    2.2138 H         1 UNK         0.0815 
    109 H109       26.0245   28.9138    2.9853 H         1 UNK         0.0815 
    110 H110       29.8354   31.2321    3.6295 H         1 UNK         0.2987 
    111 H111       28.9791   33.9105    4.1753 H         1 UNK         0.0949 
    112 H112       31.1108   33.4198    1.9967 H         1 UNK         0.0806 
    113 H113       29.5566   34.2073    1.7416 H         1 UNK         0.0806 
    114 H114       30.7750   34.9792    2.7422 H         1 UNK         0.0806 
    115 H115       30.4114   34.7508    5.7547 H         1 UNK         0.3010 
    116 H116       31.7151   32.8838    7.3736 H         1 UNK         0.0829 
    117 H117       30.7370   34.9983    8.2195 H         1 UNK         0.0813 
    118 H118       32.4226   34.8915    8.6939 H         1 UNK         0.0813 
    119 H119       31.9579   35.9424    7.3635 H         1 UNK         0.0813 
    120 H120       33.0920   34.7553    4.7570 H         1 UNK         0.3038 
    121 H121       35.8794   34.2932    5.4833 H         1 UNK         0.0769 
    122 H122       34.5952   35.2897    2.8806 H         1 UNK         0.0811 
    123 H123       36.3109   35.3310    3.2601 H         1 UNK         0.0811 
    124 H124       35.1909   36.3084    4.1927 H         1 UNK         0.0811 
    125 H125       33.4244   32.3598    3.9655 H         1 UNK         0.3204 
    126 H126       35.4259   30.6959    2.4828 H         1 UNK         0.0748 
    127 H127       33.6851   31.6822    1.0349 H         1 UNK         0.0771 
    128 H128       33.4382   29.9472    1.1657 H         1 UNK         0.0771 
    129 H129       32.4137   31.0479    2.0753 H         1 UNK         0.0771 
    130 H130       32.5127   30.5367    4.6157 H         1 UNK         0.2980 
    131 H131       33.2218   27.7268    5.3423 H         1 UNK         0.0545 
    132 H132       33.7514   27.3942    7.4862 H         1 UNK         0.3459 
    133 H133       33.3984   28.5341    8.7582 H         1 UNK         0.3459 
    134 H134       30.8288   27.3387    5.7435 H         1 UNK         0.0616 
    135 H135       30.4393   28.9942    5.3534 H         1 UNK         0.0616 
    136 H136       31.6835   25.5406    3.9417 H         1 UNK         0.0634 
    137 H137       32.9723   26.5709    3.3536 H         1 UNK         0.0634 
@<TRIPOS>BOND
     1    1    2 1    
     2    1   72 1    
     3    1   73 1    
     4    1   74 1    
     5    2    3 2    
     6    2    4 am   BACKBONE|DICT|INTERRES
     7    4    5 1    
     8    4   75 1    
     9    5    6 1    
    10    5   35 1    
    11    5   76 1    
    12    6    7 1    
    13    6   77 1    
    14    6   78 1    
    15    7    8 1    
    16    8    9 1    
    17    8   79 1    
    18    8   80 1    
    19    9   10 ar   
    20    9   14 ar   
    21   10   11 ar   
    22   10   81 1    
    23   11   12 ar   
    24   11   71 1    
    25   12   13 ar   
    26   12   82 1    
    27   13   14 ar   
    28   13   15 1    
    29   14   83 1    
    30   15   16 1    
    31   15   84 1    
    32   15   85 1    
    33   16   17 1    
    34   17   18 1    
    35   17   86 1    
    36   17   87 1    
    37   18   19 1    
    38   18   37 1    
    39   18   88 1    
    40   19   20 am   BACKBONE|DICT|INTERRES
    41   19   89 1    
    42   20   21 2    
    43   20   22 1    
    44   22   23 1    
    45   22   24 1    
    46   22   90 1    
    47   23   91 1    
    48   23   92 1    
    49   23   93 1    
    50   24   25 am   BACKBONE|DICT|INTERRES
    51   24   94 1    
    52   25   26 2    
    53   25   27 1    
    54   27   28 1    
    55   27   29 1    
    56   27   95 1    
    57   28   96 1    
    58   28   97 1    
    59   28   98 1    
    60   29   30 am   BACKBONE|DICT|INTERRES
    61   29   99 1    
    62   30   31 2    
    63   30   32 1    
    64   32   33 1    
    65   32   34 1    
    66   32  100 1    
    67   33  101 1    
    68   33  102 1    
    69   33  103 1    
    70   34   35 am   BACKBONE|DICT|INTERRES
    71   34  104 1    
    72   35   36 2    
    73   37   38 2    
    74   37   39 am   BACKBONE|DICT|INTERRES
    75   39   40 1    
    76   39  105 1    
    77   40   41 1    
    78   40   42 1    
    79   40  106 1    
    80   41  107 1    
    81   41  108 1    
    82   41  109 1    
    83   42   43 2    
    84   42   44 am   BACKBONE|DICT|INTERRES
    85   44   45 1    
    86   44  110 1    
    87   45   46 1    
    88   45   47 1    
    89   45  111 1    
    90   46  112 1    
    91   46  113 1    
    92   46  114 1    
    93   47   48 2    
    94   47   49 am   BACKBONE|DICT|INTERRES
    95   49   50 1    
    96   49  115 1    
    97   50   51 1    
    98   50   52 1    
    99   50  116 1    
   100   51  117 1    
   101   51  118 1    
   102   51  119 1    
   103   52   53 2    
   104   52   54 am   BACKBONE|DICT|INTERRES
   105   54   55 1    
   106   54  120 1    
   107   55   56 1    
   108   55   57 1    
   109   55  121 1    
   110   56  122 1    
   111   56  123 1    
   112   56  124 1    
   113   57   58 2    
   114   57   59 am   BACKBONE|DICT|INTERRES
   115   59   60 1    
   116   59  125 1    
   117   60   61 1    
   118   60   62 1    
   119   60  126 1    
   120   61  127 1    
   121   61  128 1    
   122   61  129 1    
   123   62   63 2    
   124   62   64 am   BACKBONE|DICT|INTERRES
   125   64   65 1    
   126   64  130 1    
   127   65   66 1    
   128   65   69 1    
   129   65  131 1    
   130   66   67 am   BACKBONE|DICT|INTERRES
   131   66   68 2    
   132   67  132 1    
   133   67  133 1    
   134   69   70 1    
   135   69  134 1    
   136   69  135 1    
   137   70   71 1    
   138   71  136 1    
   139   71  137 1    
@<TRIPOS>SUBSTRUCTURE
     1 UNK         1 GROUP             0       ****    0 ROOT    
