@<TRIPOS>MOLECULE
3R136
137   139    1
SMALL
USER_CHARGES


@<TRIPOS>ATOM
      1 CA         27.6789   18.5899   -1.4503 C.3       0 UNK        -0.1979 
      2 C          28.5085   19.8247   -1.1310 C.2       0 UNK         0.4864 
      3 O          29.5197   20.0696   -1.7899 O.2       0 UNK        -0.5359 
      4 N          28.0881   20.6053   -0.1262 N.am      1 UNK        -0.4318 
      5 CA         28.7781   21.8164    0.3393 C.3       1 UNK         0.0824 
      6 C6         28.3273   22.2359    1.7621 C.3       12 UNK        -0.0944 
      7 S7         28.4784   20.9152    3.0109 S.3       12 UNK        -0.2672 
      8 C8         30.2849   20.7408    3.1793 C.3       12 UNK         0.0333 
      9 C9         30.9775   22.0408    3.5684 C.ar      12 UNK        -0.0807 
     10 C10        31.9163   22.6218    2.7108 C.ar      12 UNK        -0.0894 
     11 C11        32.6030   23.7838    3.0769 C.ar      12 UNK        -0.0804 
     12 C12        32.3149   24.3755    4.3150 C.ar      12 UNK        -0.0824 
     13 C13        31.3649   23.8170    5.1778 C.ar      12 UNK        -0.0762 
     14 C14        30.7059   22.6442    4.7990 C.ar      12 UNK        -0.0782 
     15 C15        31.0824   24.4305    6.5472 C.3       12 UNK         0.0230 
     16 S16        30.9631   26.2514    6.5435 S.3       12 UNK        -0.2608 
     17 C17        29.4278   26.5384    5.6024 C.3       12 UNK        -0.0989 
     18 CA         29.5902   27.7190    4.6012 C.3       5 UNK         0.0716 
     19 N          29.5710   27.2809    3.2018 N.am      5 UNK        -0.4135 
     20 C          30.1016   27.9934    2.1996 C.2       4 UNK         0.5031 
     21 O          30.7673   29.0134    2.3730 O.2       4 UNK        -0.5229 
     22 CA         29.8536   27.5048    0.7616 C.3       4 UNK         0.0329 
     23 CB         31.0307   26.6476    0.2792 C.3       4 UNK        -0.2001 
     24 N          28.5990   26.7679    0.5613 N.am      4 UNK        -0.4303 
     25 C          27.3743   27.2902    0.7386 C.2       3 UNK         0.5044 
     26 O          27.1907   28.4101    1.2122 O.2       3 UNK        -0.5152 
     27 CA         26.1450   26.4323    0.3673 C.3       3 UNK         0.0319 
     28 CB         24.9747   27.2890   -0.1624 C.3       3 UNK        -0.2001 
     29 N          26.4325   25.3198   -0.5461 N.am      3 UNK        -0.4354 
     30 C          26.9079   25.3826   -1.8011 C.2       2 UNK         0.4964 
     31 O          27.1046   26.4348   -2.4106 O.2       2 UNK        -0.5047 
     32 CA         27.2452   24.0310   -2.4708 C.3       2 UNK         0.0288 
     33 CB         28.3229   24.1690   -3.5678 C.3       2 UNK        -0.2113 
     34 N          27.6220   22.9758   -1.5145 N.am      2 UNK        -0.4145 
     35 C          28.6234   23.0163   -0.6179 C.2       1 UNK         0.5006 
     36 O          29.3744   23.9827   -0.4815 O.2       1 UNK        -0.5103 
     37 C          28.5407   28.8255    4.8394 C.2       5 UNK         0.5055 
     38 O          28.8619   29.8550    5.4363 O.2       5 UNK        -0.5220 
     39 N          27.3093   28.5936    4.3591 N.am      6 UNK        -0.4450 
     40 CA         26.1571   29.4857    4.5201 C.3       6 UNK         0.0367 
     41 CB         24.8856   28.7730    4.0329 C.3       6 UNK        -0.1929 
     42 C          26.3218   30.8390    3.8103 C.2       6 UNK         0.5070 
     43 O          25.8805   31.8581    4.3432 O.2       6 UNK        -0.5237 
     44 N          26.9806   30.8399    2.6445 N.am      7 UNK        -0.4739 
     45 CA         27.3145   32.0155    1.8352 C.3       7 UNK         0.0276 
     46 CB         27.6489   31.5466    0.4062 C.3       7 UNK        -0.1927 
     47 C          28.4442   32.8667    2.4530 C.2       7 UNK         0.5013 
     48 O          29.4484   33.1272    1.7902 O.2       7 UNK        -0.5193 
     49 N          28.2622   33.2729    3.7176 N.am      8 UNK        -0.4253 
     50 CA         29.1536   34.1044    4.5361 C.3       8 UNK         0.0242 
     51 CB         29.1380   35.5613    4.0257 C.3       8 UNK        -0.2000 
     52 C          30.5810   33.5342    4.6709 C.2       8 UNK         0.4948 
     53 O          31.5475   34.2989    4.6430 O.2       8 UNK        -0.5275 
     54 N          30.6828   32.2028    4.8139 N.am      9 UNK        -0.4246 
     55 CA         31.9202   31.4215    4.9139 C.3       9 UNK         0.0261 
     56 CB         32.6359   31.6942    6.2540 C.3       9 UNK        -0.1959 
     57 C          32.8458   31.5799    3.6905 C.2       9 UNK         0.5033 
     58 O          34.0608   31.7168    3.8504 O.2       9 UNK        -0.5390 
     59 N          32.2636   31.5031    2.4840 N.am      10 UNK        -0.4215 
     60 CA         32.9622   31.4668    1.1911 C.3       10 UNK         0.0240 
     61 CB         31.9300   31.4375    0.0516 C.3       10 UNK        -0.1982 
     62 C          33.9526   30.2940    1.0457 C.2       10 UNK         0.4970 
     63 O          34.8997   30.4022    0.2660 O.2       10 UNK        -0.4916 
     64 N          33.7399   29.2216    1.8209 N.am      11 UNK        -0.4279 
     65 CA         34.7023   28.1365    2.0639 C.3       11 UNK         0.1003 
     66 C          36.0726   28.6062    2.6505 C.2       11 UNK         0.5709 
     67 N          36.1504   29.7338    3.3495 N.am      11 UNK        -0.7358 
     68 O          37.0894   27.9465    2.4500 O.2       11 UNK        -0.4999 
     69 C69        34.0557   27.0350    2.9475 C.3       12 UNK        -0.0954 
     70 S70        34.9169   25.4261    2.8503 S.3       12 UNK        -0.2268 
     71 C71        33.6481   24.3451    2.1071 C.3       12 UNK         0.0203 
     72 H72        27.3184   18.6350   -2.4776 H         1 UNK         0.0888 
     73 H73        28.2866   17.6920   -1.3412 H         1 UNK         0.0888 
     74 H74        26.8158   18.4966   -0.7914 H         1 UNK         0.0888 
     75 H75        27.2678   20.3402    0.4015 H         1 UNK         0.3017 
     76 H76        29.8469   21.5970    0.3745 H         1 UNK         0.0873 
     77 H77        28.8932   23.1032    2.1085 H         1 UNK         0.0745 
     78 H78        27.2819   22.5504    1.7512 H         1 UNK         0.0745 
     79 H79        30.4920   19.9894    3.9425 H         1 UNK         0.0705 
     80 H80        30.6924   20.3431    2.2488 H         1 UNK         0.0705 
     81 H81        32.1312   22.1550    1.7590 H         1 UNK         0.1334 
     82 H82        32.8341   25.2681    4.6281 H         1 UNK         0.1417 
     83 H83        29.9848   22.1892    5.4649 H         1 UNK         0.1562 
     84 H84        31.8859   24.1390    7.2246 H         1 UNK         0.0748 
     85 H85        30.1620   24.0252    6.9708 H         1 UNK         0.0748 
     86 H86        28.6363   26.7156    6.3342 H         1 UNK         0.0940 
     87 H87        29.1379   25.6210    5.0876 H         1 UNK         0.0940 
     88 H88        30.5587   28.1925    4.7767 H         1 UNK         0.0703 
     89 H89        29.0699   26.4343    2.9807 H         1 UNK         0.3081 
     90 H90        29.8064   28.3952    0.1313 H         1 UNK         0.0719 
     91 H91        31.9797   27.1720    0.3985 H         1 UNK         0.0809 
     92 H92        30.9309   26.3965   -0.7770 H         1 UNK         0.0809 
     93 H93        31.0901   25.7142    0.8386 H         1 UNK         0.0809 
     94 H94        28.6855   25.8366    0.1674 H         1 UNK         0.2990 
     95 H95        25.8156   25.9743    1.3009 H         1 UNK         0.0690 
     96 H96        24.1075   26.6733   -0.4005 H         1 UNK         0.0788 
     97 H97        25.2518   27.8413   -1.0608 H         1 UNK         0.0788 
     98 H98        24.6541   28.0222    0.5783 H         1 UNK         0.0788 
     99 H99        26.2986   24.3985   -0.1545 H         1 UNK         0.2993 
    100 H100       26.3242   23.6982   -2.9518 H         1 UNK         0.0949 
    101 H101       28.5393   23.2076   -4.0338 H         1 UNK         0.0767 
    102 H102       27.9949   24.8442   -4.3592 H         1 UNK         0.0767 
    103 H103       29.2572   24.5654   -3.1682 H         1 UNK         0.0767 
    104 H104       27.0507   22.1424   -1.5335 H         1 UNK         0.3013 
    105 H105       27.1473   27.7473    3.8357 H         1 UNK         0.3121 
    106 H106       26.0453   29.6898    5.5872 H         1 UNK         0.0774 
    107 H107       24.9471   28.5172    2.9749 H         1 UNK         0.0815 
    108 H108       24.0086   29.4086    4.1632 H         1 UNK         0.0815 
    109 H109       24.7040   27.8551    4.5921 H         1 UNK         0.0815 
    110 H110       27.2492   29.9393    2.2516 H         1 UNK         0.2987 
    111 H111       26.4309   32.6547    1.7783 H         1 UNK         0.0949 
    112 H112       28.5255   30.8971    0.3931 H         1 UNK         0.0806 
    113 H113       26.8190   30.9938   -0.0343 H         1 UNK         0.0806 
    114 H114       27.8575   32.3936   -0.2487 H         1 UNK         0.0806 
    115 H115       27.4048   32.9591    4.1679 H         1 UNK         0.3010 
    116 H116       28.7334   34.1027    5.5430 H         1 UNK         0.0829 
    117 H117       29.5862   35.6452    3.0349 H         1 UNK         0.0813 
    118 H118       28.1218   35.9514    3.9684 H         1 UNK         0.0813 
    119 H119       29.6976   36.2178    4.6933 H         1 UNK         0.0813 
    120 H120       29.8293   31.6542    4.8502 H         1 UNK         0.3038 
    121 H121       31.6147   30.3748    4.9187 H         1 UNK         0.0769 
    122 H122       33.4873   31.0252    6.3852 H         1 UNK         0.0811 
    123 H123       33.0138   32.7154    6.3114 H         1 UNK         0.0811 
    124 H124       31.9670   31.5345    7.0997 H         1 UNK         0.0811 
    125 H125       31.2625   31.3593    2.4490 H         1 UNK         0.3204 
    126 H126       33.5406   32.3889    1.1086 H         1 UNK         0.0748 
    127 H127       32.4205   31.3960   -0.9219 H         1 UNK         0.0771 
    128 H128       31.2729   30.5704    0.1240 H         1 UNK         0.0771 
    129 H129       31.3075   32.3319    0.0578 H         1 UNK         0.0771 
    130 H130       32.8858   29.2028    2.3647 H         1 UNK         0.2980 
    131 H131       34.9140   27.7021    1.0852 H         1 UNK         0.0545 
    132 H132       37.0457   30.0212    3.7103 H         1 UNK         0.3459 
    133 H133       35.3391   30.3275    3.4966 H         1 UNK         0.3459 
    134 H134       34.0202   27.3514    3.9917 H         1 UNK         0.0616 
    135 H135       33.0163   26.8824    2.6546 H         1 UNK         0.0616 
    136 H136       33.1547   24.8725    1.2924 H         1 UNK         0.0634 
    137 H137       34.1779   23.5105    1.6453 H         1 UNK         0.0634 
@<TRIPOS>BOND
     1    1    2 1    
     2    1   72 1    
     3    1   73 1    
     4    1   74 1    
     5    2    3 2    
     6    2    4 am   BACKBONE|DICT|INTERRES
     7    4    5 1    
     8    4   75 1    
     9    5    6 1    
    10    5   35 1    
    11    5   76 1    
    12    6    7 1    
    13    6   77 1    
    14    6   78 1    
    15    7    8 1    
    16    8    9 1    
    17    8   79 1    
    18    8   80 1    
    19    9   10 ar   
    20    9   14 ar   
    21   10   11 ar   
    22   10   81 1    
    23   11   12 ar   
    24   11   71 1    
    25   12   13 ar   
    26   12   82 1    
    27   13   14 ar   
    28   13   15 1    
    29   14   83 1    
    30   15   16 1    
    31   15   84 1    
    32   15   85 1    
    33   16   17 1    
    34   17   18 1    
    35   17   86 1    
    36   17   87 1    
    37   18   19 1    
    38   18   37 1    
    39   18   88 1    
    40   19   20 am   BACKBONE|DICT|INTERRES
    41   19   89 1    
    42   20   21 2    
    43   20   22 1    
    44   22   23 1    
    45   22   24 1    
    46   22   90 1    
    47   23   91 1    
    48   23   92 1    
    49   23   93 1    
    50   24   25 am   BACKBONE|DICT|INTERRES
    51   24   94 1    
    52   25   26 2    
    53   25   27 1    
    54   27   28 1    
    55   27   29 1    
    56   27   95 1    
    57   28   96 1    
    58   28   97 1    
    59   28   98 1    
    60   29   30 am   BACKBONE|DICT|INTERRES
    61   29   99 1    
    62   30   31 2    
    63   30   32 1    
    64   32   33 1    
    65   32   34 1    
    66   32  100 1    
    67   33  101 1    
    68   33  102 1    
    69   33  103 1    
    70   34   35 am   BACKBONE|DICT|INTERRES
    71   34  104 1    
    72   35   36 2    
    73   37   38 2    
    74   37   39 am   BACKBONE|DICT|INTERRES
    75   39   40 1    
    76   39  105 1    
    77   40   41 1    
    78   40   42 1    
    79   40  106 1    
    80   41  107 1    
    81   41  108 1    
    82   41  109 1    
    83   42   43 2    
    84   42   44 am   BACKBONE|DICT|INTERRES
    85   44   45 1    
    86   44  110 1    
    87   45   46 1    
    88   45   47 1    
    89   45  111 1    
    90   46  112 1    
    91   46  113 1    
    92   46  114 1    
    93   47   48 2    
    94   47   49 am   BACKBONE|DICT|INTERRES
    95   49   50 1    
    96   49  115 1    
    97   50   51 1    
    98   50   52 1    
    99   50  116 1    
   100   51  117 1    
   101   51  118 1    
   102   51  119 1    
   103   52   53 2    
   104   52   54 am   BACKBONE|DICT|INTERRES
   105   54   55 1    
   106   54  120 1    
   107   55   56 1    
   108   55   57 1    
   109   55  121 1    
   110   56  122 1    
   111   56  123 1    
   112   56  124 1    
   113   57   58 2    
   114   57   59 am   BACKBONE|DICT|INTERRES
   115   59   60 1    
   116   59  125 1    
   117   60   61 1    
   118   60   62 1    
   119   60  126 1    
   120   61  127 1    
   121   61  128 1    
   122   61  129 1    
   123   62   63 2    
   124   62   64 am   BACKBONE|DICT|INTERRES
   125   64   65 1    
   126   64  130 1    
   127   65   66 1    
   128   65   69 1    
   129   65  131 1    
   130   66   67 am   BACKBONE|DICT|INTERRES
   131   66   68 2    
   132   67  132 1    
   133   67  133 1    
   134   69   70 1    
   135   69  134 1    
   136   69  135 1    
   137   70   71 1    
   138   71  136 1    
   139   71  137 1    
@<TRIPOS>SUBSTRUCTURE
     1 UNK         1 GROUP             0       ****    0 ROOT    
