@<TRIPOS>MOLECULE
3R136
137   139    1
SMALL
USER_CHARGES


@<TRIPOS>ATOM
      1 CA         31.3500   25.0772   -3.1722 C.3       0 UNK        -0.1979 
      2 C          30.4297   24.7292   -2.0135 C.2       0 UNK         0.4864 
      3 O          29.5690   25.5346   -1.6566 O.2       0 UNK        -0.5359 
      4 N          30.5881   23.5295   -1.4359 N.am      1 UNK        -0.4318 
      5 CA         29.8910   23.0145   -0.2430 C.3       1 UNK         0.0824 
      6 C6         30.3782   21.5896    0.1222 C.3       12 UNK        -0.0944 
      7 S7         32.1798   21.5068    0.4123 S.3       12 UNK        -0.2672 
      8 C8         32.2726   20.9048    2.1294 C.3       12 UNK         0.0333 
      9 C9         32.0262   22.0148    3.1412 C.ar      12 UNK        -0.0807 
     10 C10        33.0836   22.8275    3.5597 C.ar      12 UNK        -0.0894 
     11 C11        32.8753   23.8401    4.5021 C.ar      12 UNK        -0.0804 
     12 C12        31.5924   24.0400    5.0229 C.ar      12 UNK        -0.0824 
     13 C13        30.5299   23.2204    4.6280 C.ar      12 UNK        -0.0762 
     14 C14        30.7546   22.2090    3.6878 C.ar      12 UNK        -0.0782 
     15 C15        29.1483   23.3984    5.2434 C.3       12 UNK         0.0230 
     16 S16        27.9053   23.7970    3.9771 S.3       12 UNK        -0.2608 
     17 C17        27.1143   25.2887    4.6606 C.3       12 UNK        -0.0989 
     18 CA         27.9423   26.5809    4.4463 C.3       5 UNK         0.0716 
     19 N          28.4114   26.7336    3.0671 N.am      5 UNK        -0.4135 
     20 C          29.3766   27.5775    2.6835 C.2       4 UNK         0.5031 
     21 O          30.0740   28.2169    3.4714 O.2       4 UNK        -0.5229 
     22 CA         29.6096   27.7571    1.1730 C.3       4 UNK         0.0329 
     23 CB         30.9587   27.1518    0.7626 C.3       4 UNK        -0.2001 
     24 N          28.5592   27.2340    0.2896 N.am      4 UNK        -0.4303 
     25 C          27.2862   27.6548    0.2527 C.2       3 UNK         0.5044 
     26 O          26.8124   28.4469    1.0683 O.2       3 UNK        -0.5152 
     27 CA         26.3802   27.1097   -0.8603 C.3       3 UNK         0.0319 
     28 CB         26.4622   28.0168   -2.0985 C.3       3 UNK        -0.2001 
     29 N          26.7148   25.7348   -1.2449 N.am      3 UNK        -0.4354 
     30 C          25.8334   24.7248   -1.3115 C.2       2 UNK         0.4964 
     31 O          24.6376   24.8410   -1.0394 O.2       2 UNK        -0.5047 
     32 CA         26.3508   23.3462   -1.7727 C.3       2 UNK         0.0288 
     33 CB         26.0576   23.1376   -3.2677 C.3       2 UNK        -0.2113 
     34 N          27.7810   23.1426   -1.5354 N.am      2 UNK        -0.4145 
     35 C          28.3458   23.0376   -0.3242 C.2       1 UNK         0.5006 
     36 O          27.6909   22.9759    0.7152 O.2       1 UNK        -0.5103 
     37 C          27.1258   27.8095    4.9019 C.2       5 UNK         0.5055 
     38 O          27.1967   28.1801    6.0743 O.2       5 UNK        -0.5220 
     39 N          26.3603   28.4051    3.9745 N.am      6 UNK        -0.4450 
     40 CA         25.5678   29.6147    4.1946 C.3       6 UNK         0.0367 
     41 CB         24.2712   29.5396    3.3715 C.3       6 UNK        -0.1929 
     42 C          26.3813   30.8584    3.8177 C.2       6 UNK         0.5070 
     43 O          26.4190   31.8201    4.5865 O.2       6 UNK        -0.5237 
     44 N          27.0583   30.8069    2.6621 N.am      7 UNK        -0.4739 
     45 CA         28.0074   31.8172    2.1954 C.3       7 UNK         0.0276 
     46 CB         28.1392   31.7158    0.6643 C.3       7 UNK        -0.1927 
     47 C          29.3531   31.6473    2.9205 C.2       7 UNK         0.5013 
     48 O          30.3396   31.2387    2.3071 O.2       7 UNK        -0.5193 
     49 N          29.3548   31.9484    4.2266 N.am      8 UNK        -0.4253 
     50 CA         30.4361   31.7012    5.1892 C.3       8 UNK         0.0242 
     51 CB         29.9980   32.2094    6.5720 C.3       8 UNK        -0.2000 
     52 C          31.8194   32.2701    4.8203 C.2       8 UNK         0.4948 
     53 O          32.8250   31.7746    5.3276 O.2       8 UNK        -0.5275 
     54 N          31.8605   33.2725    3.9329 N.am      9 UNK        -0.4246 
     55 CA         33.0868   33.8018    3.3346 C.3       9 UNK         0.0261 
     56 CB         32.7575   35.0934    2.5686 C.3       9 UNK        -0.1959 
     57 C          33.8034   32.7965    2.4104 C.2       9 UNK         0.5033 
     58 O          35.0223   32.8966    2.2610 O.2       9 UNK        -0.5390 
     59 N          33.0563   31.8613    1.8027 N.am      10 UNK        -0.4215 
     60 CA         33.5967   30.8326    0.9125 C.3       10 UNK         0.0240 
     61 CB         32.5174   30.3925   -0.0895 C.3       10 UNK        -0.1982 
     62 C          34.1615   29.6244    1.6767 C.2       10 UNK         0.4970 
     63 O          35.1432   29.0432    1.2126 O.2       10 UNK        -0.4916 
     64 N          33.5586   29.2688    2.8195 N.am      11 UNK        -0.4279 
     65 CA         34.0197   28.1820    3.6934 C.3       11 UNK         0.1003 
     66 C          33.4853   28.3520    5.1353 C.2       11 UNK         0.5709 
     67 N          32.1755   28.4254    5.3338 N.am      11 UNK        -0.7358 
     68 O          34.2636   28.4141    6.0839 O.2       11 UNK        -0.4999 
     69 C69        33.7304   26.7656    3.1178 C.3       12 UNK        -0.0954 
     70 S70        34.9468   25.5269    3.6673 S.3       12 UNK        -0.2268 
     71 C71        34.0442   24.6801    5.0033 C.3       12 UNK         0.0203 
     72 H72        32.0524   24.2734   -3.3917 H         1 UNK         0.0888 
     73 H73        30.7642   25.2729   -4.0698 H         1 UNK         0.0888 
     74 H74        31.9222   25.9739   -2.9362 H         1 UNK         0.0888 
     75 H75        31.3155   22.9199   -1.7832 H         1 UNK         0.3017 
     76 H76        30.1558   23.6795    0.5819 H         1 UNK         0.0873 
     77 H77        30.1348   20.8885   -0.6785 H         1 UNK         0.0745 
     78 H78        29.8567   21.2218    1.0074 H         1 UNK         0.0745 
     79 H79        31.5686   20.0838    2.2744 H         1 UNK         0.0705 
     80 H80        33.2639   20.4796    2.2935 H         1 UNK         0.0705 
     81 H81        34.0744   22.6677    3.1562 H         1 UNK         0.1334 
     82 H82        31.4271   24.8173    5.7566 H         1 UNK         0.1417 
     83 H83        29.9338   21.5729    3.3859 H         1 UNK         0.1562 
     84 H84        29.1663   24.1728    6.0114 H         1 UNK         0.0748 
     85 H85        28.8574   22.4756    5.7471 H         1 UNK         0.0748 
     86 H86        26.9142   25.1312    5.7225 H         1 UNK         0.0940 
     87 H87        26.1362   25.3765    4.1827 H         1 UNK         0.0940 
     88 H88        28.8249   26.5225    5.0873 H         1 UNK         0.0703 
     89 H89        27.9275   26.1983    2.3618 H         1 UNK         0.3081 
     90 H90        29.6600   28.8323    1.0009 H         1 UNK         0.0719 
     91 H91        30.9950   26.0770    0.9435 H         1 UNK         0.0809 
     92 H92        31.1722   27.3284   -0.2915 H         1 UNK         0.0809 
     93 H93        31.7662   27.6111    1.3280 H         1 UNK         0.0809 
     94 H94        28.8825   26.5924   -0.4333 H         1 UNK         0.2990 
     95 H95        25.3596   27.1572   -0.4749 H         1 UNK         0.0690 
     96 H96        25.7540   27.7024   -2.8653 H         1 UNK         0.0788 
     97 H97        27.4599   28.0071   -2.5397 H         1 UNK         0.0788 
     98 H98        26.2260   29.0510   -1.8434 H         1 UNK         0.0788 
     99 H99        27.6865   25.5520   -1.4830 H         1 UNK         0.2993 
    100 H100       25.8041   22.5889   -1.2062 H         1 UNK         0.0949 
    101 H101       24.9928   23.2517   -3.4763 H         1 UNK         0.0767 
    102 H102       26.5904   23.8596   -3.8881 H         1 UNK         0.0767 
    103 H103       26.3439   22.1371   -3.5929 H         1 UNK         0.0767 
    104 H104       28.3897   23.1898   -2.3394 H         1 UNK         0.3013 
    105 H105       26.4197   28.0838    3.0142 H         1 UNK         0.3121 
    106 H106       25.2952   29.6935    5.2494 H         1 UNK         0.0774 
    107 H107       23.6635   30.4331    3.5210 H         1 UNK         0.0815 
    108 H108       24.4700   29.4554    2.3022 H         1 UNK         0.0815 
    109 H109       23.6654   28.6830    3.6668 H         1 UNK         0.0815 
    110 H110       26.9777   29.9695    2.0891 H         1 UNK         0.2987 
    111 H111       27.6229   32.8118    2.4325 H         1 UNK         0.0949 
    112 H112       28.4910   30.7342    0.3483 H         1 UNK         0.0806 
    113 H113       27.1836   31.8989    0.1730 H         1 UNK         0.0806 
    114 H114       28.8468   32.4534    0.2836 H         1 UNK         0.0806 
    115 H115       28.4632   32.2286    4.6217 H         1 UNK         0.3010 
    116 H116       30.5489   30.6180    5.2480 H         1 UNK         0.0829 
    117 H117       29.0834   31.7173    6.9041 H         1 UNK         0.0813 
    118 H118       30.7625   32.0078    7.3239 H         1 UNK         0.0813 
    119 H119       29.8195   33.2853    6.5673 H         1 UNK         0.0813 
    120 H120       30.9853   33.6225    3.5717 H         1 UNK         0.3038 
    121 H121       33.7756   34.0503    4.1450 H         1 UNK         0.0769 
    122 H122       32.0571   34.9120    1.7522 H         1 UNK         0.0811 
    123 H123       33.6584   35.5288    2.1338 H         1 UNK         0.0811 
    124 H124       32.3216   35.8458    3.2262 H         1 UNK         0.0811 
    125 H125       32.0566   31.8101    1.9964 H         1 UNK         0.3204 
    126 H126       34.4177   31.2657    0.3366 H         1 UNK         0.0748 
    127 H127       32.9010   29.6313   -0.7702 H         1 UNK         0.0771 
    128 H128       31.6477   29.9723    0.4126 H         1 UNK         0.0771 
    129 H129       32.1768   31.2307   -0.6975 H         1 UNK         0.0771 
    130 H130       32.7708   29.8022    3.1611 H         1 UNK         0.2980 
    131 H131       35.1035   28.3005    3.7618 H         1 UNK         0.0545 
    132 H132       31.8405   28.5382    6.2759 H         1 UNK         0.3459 
    133 H133       31.5046   28.3435    4.5715 H         1 UNK         0.3459 
    134 H134       33.8043   26.7755    2.0304 H         1 UNK         0.0616 
    135 H135       32.7137   26.4363    3.3397 H         1 UNK         0.0616 
    136 H136       34.7405   24.0253    5.5286 H         1 UNK         0.0634 
    137 H137       33.7120   25.4193    5.7334 H         1 UNK         0.0634 
@<TRIPOS>BOND
     1    1    2 1    
     2    1   72 1    
     3    1   73 1    
     4    1   74 1    
     5    2    3 2    
     6    2    4 am   BACKBONE|DICT|INTERRES
     7    4    5 1    
     8    4   75 1    
     9    5    6 1    
    10    5   35 1    
    11    5   76 1    
    12    6    7 1    
    13    6   77 1    
    14    6   78 1    
    15    7    8 1    
    16    8    9 1    
    17    8   79 1    
    18    8   80 1    
    19    9   10 ar   
    20    9   14 ar   
    21   10   11 ar   
    22   10   81 1    
    23   11   12 ar   
    24   11   71 1    
    25   12   13 ar   
    26   12   82 1    
    27   13   14 ar   
    28   13   15 1    
    29   14   83 1    
    30   15   16 1    
    31   15   84 1    
    32   15   85 1    
    33   16   17 1    
    34   17   18 1    
    35   17   86 1    
    36   17   87 1    
    37   18   19 1    
    38   18   37 1    
    39   18   88 1    
    40   19   20 am   BACKBONE|DICT|INTERRES
    41   19   89 1    
    42   20   21 2    
    43   20   22 1    
    44   22   23 1    
    45   22   24 1    
    46   22   90 1    
    47   23   91 1    
    48   23   92 1    
    49   23   93 1    
    50   24   25 am   BACKBONE|DICT|INTERRES
    51   24   94 1    
    52   25   26 2    
    53   25   27 1    
    54   27   28 1    
    55   27   29 1    
    56   27   95 1    
    57   28   96 1    
    58   28   97 1    
    59   28   98 1    
    60   29   30 am   BACKBONE|DICT|INTERRES
    61   29   99 1    
    62   30   31 2    
    63   30   32 1    
    64   32   33 1    
    65   32   34 1    
    66   32  100 1    
    67   33  101 1    
    68   33  102 1    
    69   33  103 1    
    70   34   35 am   BACKBONE|DICT|INTERRES
    71   34  104 1    
    72   35   36 2    
    73   37   38 2    
    74   37   39 am   BACKBONE|DICT|INTERRES
    75   39   40 1    
    76   39  105 1    
    77   40   41 1    
    78   40   42 1    
    79   40  106 1    
    80   41  107 1    
    81   41  108 1    
    82   41  109 1    
    83   42   43 2    
    84   42   44 am   BACKBONE|DICT|INTERRES
    85   44   45 1    
    86   44  110 1    
    87   45   46 1    
    88   45   47 1    
    89   45  111 1    
    90   46  112 1    
    91   46  113 1    
    92   46  114 1    
    93   47   48 2    
    94   47   49 am   BACKBONE|DICT|INTERRES
    95   49   50 1    
    96   49  115 1    
    97   50   51 1    
    98   50   52 1    
    99   50  116 1    
   100   51  117 1    
   101   51  118 1    
   102   51  119 1    
   103   52   53 2    
   104   52   54 am   BACKBONE|DICT|INTERRES
   105   54   55 1    
   106   54  120 1    
   107   55   56 1    
   108   55   57 1    
   109   55  121 1    
   110   56  122 1    
   111   56  123 1    
   112   56  124 1    
   113   57   58 2    
   114   57   59 am   BACKBONE|DICT|INTERRES
   115   59   60 1    
   116   59  125 1    
   117   60   61 1    
   118   60   62 1    
   119   60  126 1    
   120   61  127 1    
   121   61  128 1    
   122   61  129 1    
   123   62   63 2    
   124   62   64 am   BACKBONE|DICT|INTERRES
   125   64   65 1    
   126   64  130 1    
   127   65   66 1    
   128   65   69 1    
   129   65  131 1    
   130   66   67 am   BACKBONE|DICT|INTERRES
   131   66   68 2    
   132   67  132 1    
   133   67  133 1    
   134   69   70 1    
   135   69  134 1    
   136   69  135 1    
   137   70   71 1    
   138   71  136 1    
   139   71  137 1    
@<TRIPOS>SUBSTRUCTURE
     1 UNK         1 GROUP             0       ****    0 ROOT    
