@<TRIPOS>MOLECULE
3R136
137   139    1
SMALL
USER_CHARGES


@<TRIPOS>ATOM
      1 CA         24.8050   21.1466    1.0786 C.3       0 UNK        -0.1979 
      2 C          25.7094   22.3356    0.7963 C.2       0 UNK         0.4864 
      3 O          25.3231   23.2296    0.0412 O.2       0 UNK        -0.5359 
      4 N          26.9034   22.3646    1.4074 N.am      1 UNK        -0.4318 
      5 CA         27.9421   23.3895    1.2233 C.3       1 UNK         0.0824 
      6 C6         29.2091   23.0893    2.0571 C.3       12 UNK        -0.0944 
      7 S7         30.1807   21.7334    1.3174 S.3       12 UNK        -0.2672 
      8 C8         31.8288   21.9680    2.0682 C.3       12 UNK         0.0333 
      9 C9         32.3561   23.3893    1.9109 C.ar      12 UNK        -0.0807 
     10 C10        32.5071   24.2045    3.0372 C.ar      12 UNK        -0.0894 
     11 C11        32.9456   25.5240    2.9043 C.ar      12 UNK        -0.0804 
     12 C12        33.2480   26.0243    1.6349 C.ar      12 UNK        -0.0824 
     13 C13        33.0967   25.2226    0.4996 C.ar      12 UNK        -0.0762 
     14 C14        32.6586   23.9014    0.6445 C.ar      12 UNK        -0.0782 
     15 C15        33.3934   25.7911   -0.8826 C.3       12 UNK         0.0230 
     16 S16        32.2281   27.1125   -1.3553 S.3       12 UNK        -0.2608 
     17 C17        30.6416   26.2134   -1.3346 C.3       12 UNK        -0.0989 
     18 CA         29.4449   27.0494   -1.8691 C.3       5 UNK         0.0716 
     19 N          28.2669   26.2058   -2.0260 N.am      5 UNK        -0.4135 
     20 C          27.8155   25.6774   -3.1658 C.2       4 UNK         0.5031 
     21 O          28.3703   25.8199   -4.2565 O.2       4 UNK        -0.5229 
     22 CA         26.5334   24.8290   -3.0829 C.3       4 UNK         0.0329 
     23 CB         26.8851   23.3351   -2.9924 C.3       4 UNK        -0.2001 
     24 N          25.6517   25.1830   -1.9648 N.am      4 UNK        -0.4303 
     25 C          24.8952   26.2897   -1.9124 C.2       3 UNK         0.5044 
     26 O          24.8918   27.1563   -2.7871 O.2       3 UNK        -0.5152 
     27 CA         23.9723   26.4532   -0.6943 C.3       3 UNK         0.0319 
     28 CB         22.7033   25.6017   -0.8654 C.3       3 UNK        -0.2001 
     29 N          24.6466   26.0674    0.5455 N.am      3 UNK        -0.4354 
     30 C          25.1259   26.9263    1.4579 C.2       2 UNK         0.4964 
     31 O          24.9968   28.1487    1.3859 O.2       2 UNK        -0.5047 
     32 CA         25.8883   26.3328    2.6614 C.3       2 UNK         0.0288 
     33 CB         24.9625   26.2103    3.8821 C.3       2 UNK        -0.2113 
     34 N          26.5093   25.0315    2.3940 N.am      2 UNK        -0.4145 
     35 C          27.4638   24.8324    1.4741 C.2       1 UNK         0.5006 
     36 O          27.9345   25.7343    0.7856 O.2       1 UNK        -0.5103 
     37 C          28.9888   28.2256   -0.9826 C.2       5 UNK         0.5055 
     38 O          28.0973   28.9739   -1.3903 O.2       5 UNK        -0.5220 
     39 N          29.5574   28.3490    0.2177 N.am      6 UNK        -0.4450 
     40 CA         29.0973   29.1964    1.3079 C.3       6 UNK         0.0367 
     41 CB         29.6339   30.6286    1.1416 C.3       6 UNK        -0.1929 
     42 C          29.5850   28.5531    2.6108 C.2       6 UNK         0.5070 
     43 O          30.4497   27.6765    2.5676 O.2       6 UNK        -0.5237 
     44 N          29.0246   28.9941    3.7414 N.am      7 UNK        -0.4739 
     45 CA         29.3986   28.5352    5.0798 C.3       7 UNK         0.0276 
     46 CB         28.1286   28.4682    5.9540 C.3       7 UNK        -0.1927 
     47 C          30.5179   29.4298    5.6475 C.2       7 UNK         0.5013 
     48 O          31.5998   29.5006    5.0590 O.2       7 UNK        -0.5193 
     49 N          30.2468   30.1228    6.7633 N.am      8 UNK        -0.4253 
     50 CA         31.1835   30.9947    7.4853 C.3       8 UNK         0.0242 
     51 CB         30.4961   31.5401    8.7471 C.3       8 UNK        -0.2000 
     52 C          31.7721   32.1503    6.6539 C.2       8 UNK         0.4948 
     53 O          32.8630   32.6203    6.9735 O.2       8 UNK        -0.5275 
     54 N          31.0780   32.5625    5.5841 N.am      9 UNK        -0.4246 
     55 CA         31.5718   33.5330    4.6039 C.3       9 UNK         0.0261 
     56 CB         30.4177   33.9594    3.6828 C.3       9 UNK        -0.1959 
     57 C          32.7706   33.0247    3.7764 C.2       9 UNK         0.5033 
     58 O          33.5323   33.8536    3.2757 O.2       9 UNK        -0.5390 
     59 N          32.9237   31.6978    3.6489 N.am      10 UNK        -0.4215 
     60 CA         34.0523   31.0527    2.9764 C.3       10 UNK         0.0240 
     61 CB         33.5353   30.0149    1.9650 C.3       10 UNK        -0.1982 
     62 C          35.0070   30.4041    3.9887 C.2       10 UNK         0.4970 
     63 O          36.2151   30.6242    3.8941 O.2       10 UNK        -0.4916 
     64 N          34.4627   29.6159    4.9250 N.am      11 UNK        -0.4279 
     65 CA         35.2392   28.8497    5.9154 C.3       11 UNK         0.1003 
     66 C          35.6229   29.6365    7.2011 C.2       11 UNK         0.5709 
     67 N          35.1500   30.8554    7.4216 N.am      11 UNK        -0.7358 
     68 O          36.3931   29.1339    8.0162 O.2       11 UNK        -0.4999 
     69 C69        34.5510   27.4993    6.2486 C.3       12 UNK        -0.0954 
     70 S70        34.7028   26.3083    4.8762 S.3       12 UNK        -0.2268 
     71 C71        33.0551   26.4199    4.1273 C.3       12 UNK         0.0203 
     72 H72        24.5810   20.6206    0.1512 H         1 UNK         0.0888 
     73 H73        23.8655   21.4862    1.5135 H         1 UNK         0.0888 
     74 H74        25.2641   20.4390    1.7687 H         1 UNK         0.0888 
     75 H75        27.1633   21.5952    2.0084 H         1 UNK         0.3017 
     76 H76        28.2194   23.3608    0.1678 H         1 UNK         0.0873 
     77 H77        29.8399   23.9779    2.1080 H         1 UNK         0.0745 
     78 H78        28.9565   22.8382    3.0887 H         1 UNK         0.0745 
     79 H79        31.7741   21.6906    3.1221 H         1 UNK         0.0705 
     80 H80        32.5302   21.2721    1.6059 H         1 UNK         0.0705 
     81 H81        32.2640   23.8207    4.0186 H         1 UNK         0.1334 
     82 H82        33.5755   27.0485    1.5265 H         1 UNK         0.1417 
     83 H83        32.5286   23.2750   -0.2276 H         1 UNK         0.1562 
     84 H84        33.3697   25.0068   -1.6408 H         1 UNK         0.0748 
     85 H85        34.4067   26.1950   -0.8920 H         1 UNK         0.0748 
     86 H86        30.4438   25.8349   -0.3294 H         1 UNK         0.0940 
     87 H87        30.7661   25.3274   -1.9595 H         1 UNK         0.0940 
     88 H88        29.7216   27.4776   -2.8348 H         1 UNK         0.0703 
     89 H89        27.7508   26.0496   -1.1658 H         1 UNK         0.3081 
     90 H90        25.9793   24.9883   -4.0104 H         1 UNK         0.0719 
     91 H91        27.4397   23.1041   -2.0830 H         1 UNK         0.0809 
     92 H92        25.9883   22.7152   -3.0026 H         1 UNK         0.0809 
     93 H93        27.5018   23.0267   -3.8377 H         1 UNK         0.0809 
     94 H94        25.5579   24.4902   -1.2233 H         1 UNK         0.2990 
     95 H95        23.6671   27.5009   -0.6489 H         1 UNK         0.0690 
     96 H96        22.0092   25.7583   -0.0395 H         1 UNK         0.0788 
     97 H97        22.9320   24.5360   -0.9119 H         1 UNK         0.0788 
     98 H98        22.1778   25.8642   -1.7847 H         1 UNK         0.0788 
     99 H99        24.8281   25.0759    0.6640 H         1 UNK         0.2993 
    100 H100       26.6894   27.0331    2.9087 H         1 UNK         0.0949 
    101 H101       24.5098   27.1725    4.1262 H         1 UNK         0.0767 
    102 H102       24.1510   25.5036    3.7036 H         1 UNK         0.0767 
    103 H103       25.5103   25.8797    4.7648 H         1 UNK         0.0767 
    104 H104       26.1600   24.2372    2.9101 H         1 UNK         0.3013 
    105 H105       30.2576   27.6755    0.5118 H         1 UNK         0.3121 
    106 H106       28.0048   29.2047    1.3150 H         1 UNK         0.0774 
    107 H107       30.7205   30.6626    1.2081 H         1 UNK         0.0815 
    108 H108       29.2353   31.2822    1.9163 H         1 UNK         0.0815 
    109 H109       29.3435   31.0551    0.1815 H         1 UNK         0.0815 
    110 H110       28.3372   29.7322    3.6902 H         1 UNK         0.2987 
    111 H111       29.8109   27.5251    5.0222 H         1 UNK         0.0949 
    112 H112       27.6386   29.4379    6.0504 H         1 UNK         0.0806 
    113 H113       27.4012   27.7780    5.5255 H         1 UNK         0.0806 
    114 H114       28.3540   28.1007    6.9563 H         1 UNK         0.0806 
    115 H115       29.3306   30.0154    7.1742 H         1 UNK         0.3010 
    116 H116       32.0246   30.3720    7.7980 H         1 UNK         0.0829 
    117 H117       30.1742   30.7332    9.4057 H         1 UNK         0.0813 
    118 H118       31.1771   32.1701    9.3216 H         1 UNK         0.0813 
    119 H119       29.6221   32.1449    8.5019 H         1 UNK         0.0813 
    120 H120       30.1819   32.1362    5.4000 H         1 UNK         0.3038 
    121 H121       31.9102   34.4154    5.1515 H         1 UNK         0.0769 
    122 H122       30.0196   33.1176    3.1182 H         1 UNK         0.0811 
    123 H123       30.7509   34.7065    2.9609 H         1 UNK         0.0811 
    124 H124       29.5991   34.4030    4.2499 H         1 UNK         0.0811 
    125 H125       32.2718   31.0799    4.1234 H         1 UNK         0.3204 
    126 H126       34.6337   31.7884    2.4167 H         1 UNK         0.0748 
    127 H127       33.0503   30.5024    1.1201 H         1 UNK         0.0771 
    128 H128       34.3535   29.4182    1.5595 H         1 UNK         0.0771 
    129 H129       32.8158   29.3291    2.4128 H         1 UNK         0.0771 
    130 H130       33.4541   29.4929    4.9540 H         1 UNK         0.2980 
    131 H131       36.2026   28.6051    5.4632 H         1 UNK         0.0545 
    132 H132       35.4308   31.3372    8.2602 H         1 UNK         0.3459 
    133 H133       34.4904   31.2997    6.7978 H         1 UNK         0.3459 
    134 H134       35.0136   27.0249    7.1161 H         1 UNK         0.0616 
    135 H135       33.5021   27.6494    6.5110 H         1 UNK         0.0616 
    136 H136       32.8558   27.4538    3.8485 H         1 UNK         0.0634 
    137 H137       32.2970   26.1484    4.8633 H         1 UNK         0.0634 
@<TRIPOS>BOND
     1    1    2 1    
     2    1   72 1    
     3    1   73 1    
     4    1   74 1    
     5    2    3 2    
     6    2    4 am   BACKBONE|DICT|INTERRES
     7    4    5 1    
     8    4   75 1    
     9    5    6 1    
    10    5   35 1    
    11    5   76 1    
    12    6    7 1    
    13    6   77 1    
    14    6   78 1    
    15    7    8 1    
    16    8    9 1    
    17    8   79 1    
    18    8   80 1    
    19    9   10 ar   
    20    9   14 ar   
    21   10   11 ar   
    22   10   81 1    
    23   11   12 ar   
    24   11   71 1    
    25   12   13 ar   
    26   12   82 1    
    27   13   14 ar   
    28   13   15 1    
    29   14   83 1    
    30   15   16 1    
    31   15   84 1    
    32   15   85 1    
    33   16   17 1    
    34   17   18 1    
    35   17   86 1    
    36   17   87 1    
    37   18   19 1    
    38   18   37 1    
    39   18   88 1    
    40   19   20 am   BACKBONE|DICT|INTERRES
    41   19   89 1    
    42   20   21 2    
    43   20   22 1    
    44   22   23 1    
    45   22   24 1    
    46   22   90 1    
    47   23   91 1    
    48   23   92 1    
    49   23   93 1    
    50   24   25 am   BACKBONE|DICT|INTERRES
    51   24   94 1    
    52   25   26 2    
    53   25   27 1    
    54   27   28 1    
    55   27   29 1    
    56   27   95 1    
    57   28   96 1    
    58   28   97 1    
    59   28   98 1    
    60   29   30 am   BACKBONE|DICT|INTERRES
    61   29   99 1    
    62   30   31 2    
    63   30   32 1    
    64   32   33 1    
    65   32   34 1    
    66   32  100 1    
    67   33  101 1    
    68   33  102 1    
    69   33  103 1    
    70   34   35 am   BACKBONE|DICT|INTERRES
    71   34  104 1    
    72   35   36 2    
    73   37   38 2    
    74   37   39 am   BACKBONE|DICT|INTERRES
    75   39   40 1    
    76   39  105 1    
    77   40   41 1    
    78   40   42 1    
    79   40  106 1    
    80   41  107 1    
    81   41  108 1    
    82   41  109 1    
    83   42   43 2    
    84   42   44 am   BACKBONE|DICT|INTERRES
    85   44   45 1    
    86   44  110 1    
    87   45   46 1    
    88   45   47 1    
    89   45  111 1    
    90   46  112 1    
    91   46  113 1    
    92   46  114 1    
    93   47   48 2    
    94   47   49 am   BACKBONE|DICT|INTERRES
    95   49   50 1    
    96   49  115 1    
    97   50   51 1    
    98   50   52 1    
    99   50  116 1    
   100   51  117 1    
   101   51  118 1    
   102   51  119 1    
   103   52   53 2    
   104   52   54 am   BACKBONE|DICT|INTERRES
   105   54   55 1    
   106   54  120 1    
   107   55   56 1    
   108   55   57 1    
   109   55  121 1    
   110   56  122 1    
   111   56  123 1    
   112   56  124 1    
   113   57   58 2    
   114   57   59 am   BACKBONE|DICT|INTERRES
   115   59   60 1    
   116   59  125 1    
   117   60   61 1    
   118   60   62 1    
   119   60  126 1    
   120   61  127 1    
   121   61  128 1    
   122   61  129 1    
   123   62   63 2    
   124   62   64 am   BACKBONE|DICT|INTERRES
   125   64   65 1    
   126   64  130 1    
   127   65   66 1    
   128   65   69 1    
   129   65  131 1    
   130   66   67 am   BACKBONE|DICT|INTERRES
   131   66   68 2    
   132   67  132 1    
   133   67  133 1    
   134   69   70 1    
   135   69  134 1    
   136   69  135 1    
   137   70   71 1    
   138   71  136 1    
   139   71  137 1    
@<TRIPOS>SUBSTRUCTURE
     1 UNK         1 GROUP             0       ****    0 ROOT    
