@<TRIPOS>MOLECULE
3R136
137   139    1
SMALL
USER_CHARGES


@<TRIPOS>ATOM
      1 CA         28.1984   22.0633   -0.6420 C.3       0 UNK        -0.1979 
      2 C          29.6273   22.5009   -0.9261 C.2       0 UNK         0.4864 
      3 O          29.9517   22.8138   -2.0725 O.2       0 UNK        -0.5359 
      4 N          30.4888   22.4994    0.1004 N.am      1 UNK        -0.4318 
      5 CA         31.9129   22.8426   -0.0099 C.3       1 UNK         0.0824 
      6 C6         32.7912   22.2345    1.1206 C.3       12 UNK        -0.0944 
      7 S7         32.2862   20.5429    1.6158 S.3       12 UNK        -0.2672 
      8 C8         31.8861   20.6973    3.3944 C.3       12 UNK         0.0333 
      9 C9         31.1170   21.9675    3.7399 C.ar      12 UNK        -0.0807 
     10 C10        31.7574   22.9898    4.4475 C.ar      12 UNK        -0.0894 
     11 C11        31.0957   24.1875    4.7285 C.ar      12 UNK        -0.0804 
     12 C12        29.7719   24.3504    4.3124 C.ar      12 UNK        -0.0824 
     13 C13        29.1091   23.3247    3.6306 C.ar      12 UNK        -0.0762 
     14 C14        29.7834   22.1308    3.3505 C.ar      12 UNK        -0.0782 
     15 C15        27.6551   23.5102    3.2300 C.3       12 UNK         0.0230 
     16 S16        27.5017   24.5521    1.7440 S.3       12 UNK        -0.2608 
     17 C17        26.0286   25.5411    2.1652 C.3       12 UNK        -0.0989 
     18 CA         26.4409   26.9692    2.6128 C.3       5 UNK         0.0716 
     19 N          26.7721   27.8829    1.5020 N.am      5 UNK        -0.4135 
     20 C          25.9713   28.3017    0.5088 C.2       4 UNK         0.5031 
     21 O          24.7988   27.9512    0.3798 O.2       4 UNK        -0.5229 
     22 CA         26.5528   29.3277   -0.4670 C.3       4 UNK         0.0329 
     23 CB         26.7046   30.7047    0.2125 C.3       4 UNK        -0.2001 
     24 N          27.8218   28.8467   -1.0059 N.am      4 UNK        -0.4303 
     25 C          28.4797   29.3595   -2.0523 C.2       3 UNK         0.5044 
     26 O          28.0806   30.3354   -2.6901 O.2       3 UNK        -0.5152 
     27 CA         29.8072   28.6764   -2.4536 C.3       3 UNK         0.0319 
     28 CB         30.7413   29.6246   -3.2284 C.3       3 UNK        -0.2001 
     29 N          30.5490   28.1172   -1.3171 N.am      3 UNK        -0.4354 
     30 C          30.2586   26.9712   -0.6917 C.2       2 UNK         0.4964 
     31 O          29.2801   26.2762   -0.9710 O.2       2 UNK        -0.5047 
     32 CA         31.1570   26.5828    0.4875 C.3       2 UNK         0.0288 
     33 CB         30.5945   27.1428    1.8049 C.3       2 UNK        -0.2113 
     34 N          31.2465   25.1291    0.5859 N.am      2 UNK        -0.4145 
     35 C          32.1131   24.3693   -0.0996 C.2       1 UNK         0.5006 
     36 O          33.0299   24.8224   -0.7873 O.2       1 UNK        -0.5103 
     37 C          25.4571   27.5701    3.6420 C.2       5 UNK         0.5055 
     38 O          25.6026   27.2984    4.8344 O.2       5 UNK        -0.5220 
     39 N          24.5338   28.4332    3.1970 N.am      6 UNK        -0.4450 
     40 CA         23.7902   29.3790    4.0365 C.3       6 UNK         0.0367 
     41 CB         22.6606   30.0085    3.2060 C.3       6 UNK        -0.1929 
     42 C          24.7002   30.4757    4.6305 C.2       6 UNK         0.5070 
     43 O          24.3486   31.0713    5.6488 O.2       6 UNK        -0.5237 
     44 N          25.8567   30.7001    3.9954 N.am      7 UNK        -0.4739 
     45 CA         26.9749   31.4975    4.4797 C.3       7 UNK         0.0276 
     46 CB         27.0420   32.8148    3.6898 C.3       7 UNK        -0.1927 
     47 C          28.2520   30.6739    4.2708 C.2       7 UNK         0.5013 
     48 O          28.3063   29.8478    3.3520 O.2       7 UNK        -0.5193 
     49 N          29.2739   30.9371    5.0935 N.am      8 UNK        -0.4253 
     50 CA         30.5806   30.2678    5.0869 C.3       8 UNK         0.0242 
     51 CB         31.2308   30.4636    6.4697 C.3       8 UNK        -0.2000 
     52 C          31.4936   30.7390    3.9342 C.2       8 UNK         0.4948 
     53 O          32.6615   31.0683    4.1597 O.2       8 UNK        -0.5275 
     54 N          30.9477   30.7625    2.7128 N.am      9 UNK        -0.4246 
     55 CA         31.5631   31.2392    1.4709 C.3       9 UNK         0.0261 
     56 CB         30.4449   31.4901    0.4433 C.3       9 UNK        -0.1959 
     57 C          32.6646   30.3018    0.9322 C.2       9 UNK         0.5033 
     58 O          32.5370   29.7795   -0.1761 O.2       9 UNK        -0.5390 
     59 N          33.7048   30.1155    1.7499 N.am      10 UNK        -0.4215 
     60 CA         34.9697   29.3929    1.5600 C.3       10 UNK         0.0240 
     61 CB         34.8447   28.0860    0.7461 C.3       10 UNK        -0.1982 
     62 C          35.5313   29.0442    2.9431 C.2       10 UNK         0.4970 
     63 O          36.7295   29.2041    3.1759 O.2       10 UNK        -0.4916 
     64 N          34.6442   28.5626    3.8224 N.am      11 UNK        -0.4279 
     65 CA         34.9509   28.0966    5.1801 C.3       11 UNK         0.1003 
     66 C          35.3406   29.2266    6.1740 C.2       11 UNK         0.5709 
     67 N          34.9069   30.4653    5.9698 N.am      11 UNK        -0.7358 
     68 O          36.0541   28.9732    7.1415 O.2       11 UNK        -0.4999 
     69 C69        33.7990   27.2299    5.7539 C.3       12 UNK        -0.0954 
     70 S70        33.2910   25.8817    4.6357 S.3       12 UNK        -0.2268 
     71 C71        31.8039   25.2917    5.5011 C.3       12 UNK         0.0203 
     72 H72        27.5078   22.8755   -0.8681 H         1 UNK         0.0888 
     73 H73        27.9359   21.2089   -1.2651 H         1 UNK         0.0888 
     74 H74        28.0580   21.7780    0.4002 H         1 UNK         0.0888 
     75 H75        30.1841   22.2117    1.0186 H         1 UNK         0.3017 
     76 H76        32.2728   22.4206   -0.9511 H         1 UNK         0.0873 
     77 H77        33.8273   22.1828    0.7815 H         1 UNK         0.0745 
     78 H78        32.8196   22.8877    1.9916 H         1 UNK         0.0745 
     79 H79        31.3039   19.8275    3.7016 H         1 UNK         0.0705 
     80 H80        32.8177   20.6507    3.9607 H         1 UNK         0.0705 
     81 H81        32.7847   22.8660    4.7626 H         1 UNK         0.1334 
     82 H82        29.2482   25.2718    4.5287 H         1 UNK         0.1417 
     83 H83        29.2752   21.3297    2.8305 H         1 UNK         0.1562 
     84 H84        27.1228   23.9596    4.0696 H         1 UNK         0.0748 
     85 H85        27.1746   22.5485    3.0439 H         1 UNK         0.0748 
     86 H86        25.4630   25.0217    2.9413 H         1 UNK         0.0940 
     87 H87        25.3644   25.5687    1.3009 H         1 UNK         0.0940 
     88 H88        27.3733   26.8823    3.1742 H         1 UNK         0.0703 
     89 H89        27.6797   28.3198    1.5881 H         1 UNK         0.3081 
     90 H90        25.8489   29.4255   -1.2963 H         1 UNK         0.0719 
     91 H91        27.4777   30.6963    0.9796 H         1 UNK         0.0809 
     92 H92        26.9655   31.4795   -0.5081 H         1 UNK         0.0809 
     93 H93        25.7728   31.0145    0.6876 H         1 UNK         0.0809 
     94 H94        28.1667   27.9671   -0.6346 H         1 UNK         0.2990 
     95 H95        29.5425   27.8561   -3.1240 H         1 UNK         0.0690 
     96 H96        31.6568   29.1172   -3.5332 H         1 UNK         0.0788 
     97 H97        31.0238   30.4886   -2.6259 H         1 UNK         0.0788 
     98 H98        30.2644   29.9978   -4.1356 H         1 UNK         0.0788 
     99 H99        31.3300   28.6789   -0.9755 H         1 UNK         0.2993 
    100 H100       32.1480   27.0016    0.3146 H         1 UNK         0.0949 
    101 H101       30.4528   28.2209    1.7445 H         1 UNK         0.0767 
    102 H102       29.6293   26.7013    2.0521 H         1 UNK         0.0767 
    103 H103       31.2710   26.9490    2.6366 H         1 UNK         0.0767 
    104 H104       30.4883   24.6692    1.0693 H         1 UNK         0.3013 
    105 H105       24.4292   28.5198    2.1900 H         1 UNK         0.3121 
    106 H106       23.3466   28.8274    4.8681 H         1 UNK         0.0774 
    107 H107       23.0489   30.5688    2.3544 H         1 UNK         0.0815 
    108 H108       22.0718   30.7000    3.8103 H         1 UNK         0.0815 
    109 H109       21.9769   29.2494    2.8257 H         1 UNK         0.0815 
    110 H110       26.0895   30.1092    3.2095 H         1 UNK         0.2987 
    111 H111       26.8585   31.7077    5.5455 H         1 UNK         0.0949 
    112 H112       27.1881   32.6418    2.6230 H         1 UNK         0.0806 
    113 H113       26.1262   33.3937    3.8110 H         1 UNK         0.0806 
    114 H114       27.8674   33.4386    4.0354 H         1 UNK         0.0806 
    115 H115       29.1565   31.6644    5.7846 H         1 UNK         0.3010 
    116 H116       30.4192   29.1971    4.9419 H         1 UNK         0.0829 
    117 H117       30.5962   30.0742    7.2659 H         1 UNK         0.0813 
    118 H118       32.1843   29.9428    6.5403 H         1 UNK         0.0813 
    119 H119       31.4240   31.5167    6.6780 H         1 UNK         0.0813 
    120 H120       29.9858   30.4418    2.6484 H         1 UNK         0.3038 
    121 H121       32.0399   32.1995    1.6784 H         1 UNK         0.0769 
    122 H122       29.8983   30.5750    0.2202 H         1 UNK         0.0811 
    123 H123       30.8489   31.8700   -0.4958 H         1 UNK         0.0811 
    124 H124       29.7285   32.2271    0.8066 H         1 UNK         0.0811 
    125 H125       33.6231   30.5826    2.6528 H         1 UNK         0.3204 
    126 H126       35.6683   30.0647    1.0586 H         1 UNK         0.0748 
    127 H127       34.1461   27.3883    1.2064 H         1 UNK         0.0771 
    128 H128       34.5321   28.2638   -0.2820 H         1 UNK         0.0771 
    129 H129       35.8076   27.5764    0.6886 H         1 UNK         0.0771 
    130 H130       33.6872   28.4473    3.5281 H         1 UNK         0.2980 
    131 H131       35.8277   27.4513    5.0973 H         1 UNK         0.0545 
    132 H132       35.1737   31.1908    6.6152 H         1 UNK         0.3459 
    133 H133       34.2590   30.6736    5.2177 H         1 UNK         0.3459 
    134 H134       34.0933   26.7878    6.7076 H         1 UNK         0.0616 
    135 H135       32.9235   27.8474    5.9555 H         1 UNK         0.0616 
    136 H136       31.1325   26.1357    5.6667 H         1 UNK         0.0634 
    137 H137       32.0857   24.9168    6.4859 H         1 UNK         0.0634 
@<TRIPOS>BOND
     1    1    2 1    
     2    1   72 1    
     3    1   73 1    
     4    1   74 1    
     5    2    3 2    
     6    2    4 am   BACKBONE|DICT|INTERRES
     7    4    5 1    
     8    4   75 1    
     9    5    6 1    
    10    5   35 1    
    11    5   76 1    
    12    6    7 1    
    13    6   77 1    
    14    6   78 1    
    15    7    8 1    
    16    8    9 1    
    17    8   79 1    
    18    8   80 1    
    19    9   10 ar   
    20    9   14 ar   
    21   10   11 ar   
    22   10   81 1    
    23   11   12 ar   
    24   11   71 1    
    25   12   13 ar   
    26   12   82 1    
    27   13   14 ar   
    28   13   15 1    
    29   14   83 1    
    30   15   16 1    
    31   15   84 1    
    32   15   85 1    
    33   16   17 1    
    34   17   18 1    
    35   17   86 1    
    36   17   87 1    
    37   18   19 1    
    38   18   37 1    
    39   18   88 1    
    40   19   20 am   BACKBONE|DICT|INTERRES
    41   19   89 1    
    42   20   21 2    
    43   20   22 1    
    44   22   23 1    
    45   22   24 1    
    46   22   90 1    
    47   23   91 1    
    48   23   92 1    
    49   23   93 1    
    50   24   25 am   BACKBONE|DICT|INTERRES
    51   24   94 1    
    52   25   26 2    
    53   25   27 1    
    54   27   28 1    
    55   27   29 1    
    56   27   95 1    
    57   28   96 1    
    58   28   97 1    
    59   28   98 1    
    60   29   30 am   BACKBONE|DICT|INTERRES
    61   29   99 1    
    62   30   31 2    
    63   30   32 1    
    64   32   33 1    
    65   32   34 1    
    66   32  100 1    
    67   33  101 1    
    68   33  102 1    
    69   33  103 1    
    70   34   35 am   BACKBONE|DICT|INTERRES
    71   34  104 1    
    72   35   36 2    
    73   37   38 2    
    74   37   39 am   BACKBONE|DICT|INTERRES
    75   39   40 1    
    76   39  105 1    
    77   40   41 1    
    78   40   42 1    
    79   40  106 1    
    80   41  107 1    
    81   41  108 1    
    82   41  109 1    
    83   42   43 2    
    84   42   44 am   BACKBONE|DICT|INTERRES
    85   44   45 1    
    86   44  110 1    
    87   45   46 1    
    88   45   47 1    
    89   45  111 1    
    90   46  112 1    
    91   46  113 1    
    92   46  114 1    
    93   47   48 2    
    94   47   49 am   BACKBONE|DICT|INTERRES
    95   49   50 1    
    96   49  115 1    
    97   50   51 1    
    98   50   52 1    
    99   50  116 1    
   100   51  117 1    
   101   51  118 1    
   102   51  119 1    
   103   52   53 2    
   104   52   54 am   BACKBONE|DICT|INTERRES
   105   54   55 1    
   106   54  120 1    
   107   55   56 1    
   108   55   57 1    
   109   55  121 1    
   110   56  122 1    
   111   56  123 1    
   112   56  124 1    
   113   57   58 2    
   114   57   59 am   BACKBONE|DICT|INTERRES
   115   59   60 1    
   116   59  125 1    
   117   60   61 1    
   118   60   62 1    
   119   60  126 1    
   120   61  127 1    
   121   61  128 1    
   122   61  129 1    
   123   62   63 2    
   124   62   64 am   BACKBONE|DICT|INTERRES
   125   64   65 1    
   126   64  130 1    
   127   65   66 1    
   128   65   69 1    
   129   65  131 1    
   130   66   67 am   BACKBONE|DICT|INTERRES
   131   66   68 2    
   132   67  132 1    
   133   67  133 1    
   134   69   70 1    
   135   69  134 1    
   136   69  135 1    
   137   70   71 1    
   138   71  136 1    
   139   71  137 1    
@<TRIPOS>SUBSTRUCTURE
     1 UNK         1 GROUP             0       ****    0 ROOT    
