@<TRIPOS>MOLECULE
3R136
137   139    1
SMALL
USER_CHARGES


@<TRIPOS>ATOM
      1 CA         33.2745   22.6631   -4.8555 C.3       0 UNK        -0.1979 
      2 C          32.3720   23.3966   -3.8750 C.2       0 UNK         0.4864 
      3 O          31.7470   24.3929   -4.2438 O.2       0 UNK        -0.5359 
      4 N          32.2872   22.9105   -2.6291 N.am      1 UNK        -0.4318 
      5 CA         31.4644   23.4695   -1.5503 C.3       1 UNK         0.0824 
      6 C6         32.0559   23.1079   -0.1628 C.3       12 UNK        -0.0944 
      7 S7         31.4842   24.2330    1.1541 S.3       12 UNK        -0.2672 
      8 C8         30.7736   23.0448    2.3342 C.3       12 UNK         0.0333 
      9 C9         30.1615   23.7379    3.5438 C.ar      12 UNK        -0.0807 
     10 C10        30.9779   24.4130    4.4574 C.ar      12 UNK        -0.0894 
     11 C11        30.4235   25.0304    5.5826 C.ar      12 UNK        -0.0804 
     12 C12        29.0470   24.9518    5.8045 C.ar      12 UNK        -0.0824 
     13 C13        28.2206   24.2819    4.8989 C.ar      12 UNK        -0.0762 
     14 C14        28.7816   23.6815    3.7670 C.ar      12 UNK        -0.0782 
     15 C15        26.7240   24.1937    5.1522 C.3       12 UNK         0.0230 
     16 S16        25.8052   25.4512    4.2140 S.3       12 UNK        -0.2608 
     17 C17        26.2720   27.0009    5.0697 C.3       12 UNK        -0.0989 
     18 CA         27.2553   27.8742    4.2453 C.3       5 UNK         0.0716 
     19 N          26.7534   28.0710    2.8851 N.am      5 UNK        -0.4135 
     20 C          27.2699   28.7961    1.8850 C.2       4 UNK         0.5031 
     21 O          28.2629   29.5257    1.9790 O.2       4 UNK        -0.5229 
     22 CA         26.5327   28.6488    0.5389 C.3       4 UNK         0.0329 
     23 CB         27.3136   29.2547   -0.6433 C.3       4 UNK        -0.2001 
     24 N          26.1502   27.2537    0.2656 N.am      4 UNK        -0.4303 
     25 C          26.9732   26.1980    0.1481 C.2       3 UNK         0.5044 
     26 O          28.2020   26.2770    0.1763 O.2       3 UNK        -0.5152 
     27 CA         26.3256   24.8040    0.0157 C.3       3 UNK         0.0319 
     28 CB         24.7913   24.8161   -0.1786 C.3       3 UNK        -0.2001 
     29 N          26.9866   24.0058   -1.0211 N.am      3 UNK        -0.4354 
     30 C          27.0550   24.2760   -2.3321 C.2       2 UNK         0.4964 
     31 O          26.4765   25.2183   -2.8772 O.2       2 UNK        -0.5047 
     32 CA         27.9575   23.3428   -3.1609 C.3       2 UNK         0.0288 
     33 CB         27.7875   23.5414   -4.6790 C.3       2 UNK        -0.2113 
     34 N          29.3652   23.5431   -2.8156 N.am      2 UNK        -0.4145 
     35 C          29.9807   23.0684   -1.7251 C.2       1 UNK         0.5006 
     36 O          29.4243   22.3315   -0.9067 O.2       1 UNK        -0.5103 
     37 C          27.5347   29.2178    4.9471 C.2       5 UNK         0.5055 
     38 O          26.5896   29.8988    5.3487 O.2       5 UNK        -0.5220 
     39 N          28.8204   29.5911    5.0209 N.am      6 UNK        -0.4450 
     40 CA         29.3761   30.8510    5.5361 C.3       6 UNK         0.0367 
     41 CB         29.0763   31.0113    7.0408 C.3       6 UNK        -0.1929 
     42 C          28.9952   32.1136    4.7301 C.2       6 UNK         0.5070 
     43 O          29.3803   33.2138    5.1281 O.2       6 UNK        -0.5237 
     44 N          28.2754   31.9515    3.6124 N.am      7 UNK        -0.4739 
     45 CA         27.9174   33.0176    2.6762 C.3       7 UNK         0.0276 
     46 CB         26.5370   32.7247    2.0652 C.3       7 UNK        -0.1927 
     47 C          28.9825   33.1502    1.5797 C.2       7 UNK         0.5013 
     48 O          29.3618   34.2708    1.2374 O.2       7 UNK        -0.5193 
     49 N          29.4590   32.0053    1.0741 N.am      8 UNK        -0.4253 
     50 CA         30.5751   31.9054    0.1316 C.3       8 UNK         0.0242 
     51 CB         30.0512   31.7663   -1.3080 C.3       8 UNK        -0.2000 
     52 C          31.5322   30.7574    0.4877 C.2       8 UNK         0.4948 
     53 O          32.6892   30.8089    0.0670 O.2       8 UNK        -0.5275 
     54 N          31.0697   29.7543    1.2518 N.am      9 UNK        -0.4246 
     55 CA         31.9053   28.6808    1.7907 C.3       9 UNK         0.0261 
     56 CB         31.0063   27.6066    2.4192 C.3       9 UNK        -0.1959 
     57 C          32.9038   29.2229    2.8273 C.2       9 UNK         0.5033 
     58 O          32.5190   30.0205    3.6876 O.2       9 UNK        -0.5390 
     59 N          34.1605   28.7701    2.7406 N.am      10 UNK        -0.4215 
     60 CA         35.2714   29.1837    3.6025 C.3       10 UNK         0.0240 
     61 CB         36.5973   28.9442    2.8550 C.3       10 UNK        -0.1982 
     62 C          35.2266   28.4798    4.9721 C.2       10 UNK         0.4970 
     63 O          36.1278   27.7062    5.3014 O.2       10 UNK        -0.4916 
     64 N          34.1611   28.7458    5.7337 N.am      11 UNK        -0.4279 
     65 CA         33.8957   28.1543    7.0550 C.3       11 UNK         0.1003 
     66 C          34.7875   28.6994    8.2084 C.2       11 UNK         0.5709 
     67 N          35.5351   29.7808    8.0207 N.am      11 UNK        -0.7358 
     68 O          34.8066   28.1231    9.2935 O.2       11 UNK        -0.4999 
     69 C69        32.3930   28.2340    7.4321 C.3       12 UNK        -0.0954 
     70 S70        31.2972   27.5633    6.1409 S.3       12 UNK        -0.2268 
     71 C71        31.3030   25.7968    6.5545 C.3       12 UNK         0.0203 
     72 H72        34.0469   23.3351   -5.2284 H         1 UNK         0.0888 
     73 H73        33.7647   21.8052   -4.3957 H         1 UNK         0.0888 
     74 H74        32.6932   22.3066   -5.7054 H         1 UNK         0.0888 
     75 H75        32.7981   22.0709   -2.3948 H         1 UNK         0.3017 
     76 H76        31.5038   24.5578   -1.6416 H         1 UNK         0.0873 
     77 H77        33.1431   23.1986   -0.1897 H         1 UNK         0.0745 
     78 H78        31.8549   22.0668    0.0974 H         1 UNK         0.0745 
     79 H79        31.5539   22.3602    2.6698 H         1 UNK         0.0705 
     80 H80        30.0265   22.4373    1.8208 H         1 UNK         0.0705 
     81 H81        32.0440   24.4673    4.2834 H         1 UNK         0.1334 
     82 H82        28.6206   25.4225    6.6797 H         1 UNK         0.1417 
     83 H83        28.1421   23.1628    3.0657 H         1 UNK         0.1562 
     84 H84        26.5022   24.2936    6.2159 H         1 UNK         0.0748 
     85 H85        26.3632   23.2062    4.8607 H         1 UNK         0.0748 
     86 H86        26.6917   26.7719    6.0503 H         1 UNK         0.0940 
     87 H87        25.3474   27.5479    5.2660 H         1 UNK         0.0940 
     88 H88        28.1952   27.3256    4.1574 H         1 UNK         0.0703 
     89 H89        25.9396   27.5143    2.6712 H         1 UNK         0.3081 
     90 H90        25.6023   29.2098    0.6380 H         1 UNK         0.0719 
     91 H91        28.3059   28.8130   -0.7413 H         1 UNK         0.0809 
     92 H92        26.7865   29.1072   -1.5857 H         1 UNK         0.0809 
     93 H93        27.4407   30.3290   -0.5092 H         1 UNK         0.0809 
     94 H94        25.1572   27.0757    0.2049 H         1 UNK         0.2990 
     95 H95        26.5292   24.2951    0.9592 H         1 UNK         0.0690 
     96 H96        24.4912   25.3699   -1.0690 H         1 UNK         0.0788 
     97 H97        24.2863   25.2610    0.6797 H         1 UNK         0.0788 
     98 H98        24.4040   23.8020   -0.2781 H         1 UNK         0.0788 
     99 H99        27.5849   23.2590   -0.6823 H         1 UNK         0.2993 
    100 H100       27.6751   22.3141   -2.9252 H         1 UNK         0.0949 
    101 H101       28.0786   24.5453   -4.9914 H         1 UNK         0.0767 
    102 H102       28.3911   22.8285   -5.2412 H         1 UNK         0.0767 
    103 H103       26.7490   23.3933   -4.9783 H         1 UNK         0.0767 
    104 H104       29.9189   24.1112   -3.4497 H         1 UNK         0.3013 
    105 H105       29.5145   28.9579    4.6487 H         1 UNK         0.3121 
    106 H106       30.4578   30.7547    5.4302 H         1 UNK         0.0774 
    107 H107       29.6111   31.8656    7.4573 H         1 UNK         0.0815 
    108 H108       28.0145   31.1718    7.2288 H         1 UNK         0.0815 
    109 H109       29.3894   30.1309    7.6021 H         1 UNK         0.0815 
    110 H110       28.0405   31.0055    3.3355 H         1 UNK         0.2987 
    111 H111       27.8579   33.9697    3.2086 H         1 UNK         0.0949 
    112 H112       26.2348   33.5250    1.3884 H         1 UNK         0.0806 
    113 H113       26.5295   31.7963    1.4941 H         1 UNK         0.0806 
    114 H114       25.7719   32.6477    2.8380 H         1 UNK         0.0806 
    115 H115       29.0589   31.1354    1.4114 H         1 UNK         0.3010 
    116 H116       31.1693   32.8203    0.1876 H         1 UNK         0.0829 
    117 H117       29.3525   32.5648   -1.5582 H         1 UNK         0.0813 
    118 H118       30.8730   31.8189   -2.0232 H         1 UNK         0.0813 
    119 H119       29.5493   30.8134   -1.4678 H         1 UNK         0.0813 
    120 H120       30.0983   29.7395    1.5420 H         1 UNK         0.3038 
    121 H121       32.4549   28.2294    0.9619 H         1 UNK         0.0769 
    122 H122       31.6013   26.7969    2.8425 H         1 UNK         0.0811 
    123 H123       30.3354   27.1654    1.6816 H         1 UNK         0.0811 
    124 H124       30.3956   28.0123    3.2228 H         1 UNK         0.0811 
    125 H125       34.3797   28.0878    2.0289 H         1 UNK         0.3204 
    126 H126       35.1886   30.2569    3.7888 H         1 UNK         0.0748 
    127 H127       37.4486   29.2682    3.4554 H         1 UNK         0.0771 
    128 H128       36.7462   27.8894    2.6198 H         1 UNK         0.0771 
    129 H129       36.6320   29.5045    1.9203 H         1 UNK         0.0771 
    130 H130       33.4404   29.3495    5.3508 H         1 UNK         0.2980 
    131 H131       34.1460   27.0946    6.9783 H         1 UNK         0.0545 
    132 H132       36.1113   30.1200    8.7747 H         1 UNK         0.3459 
    133 H133       35.5251   30.2612    7.1358 H         1 UNK         0.3459 
    134 H134       32.1025   29.2722    7.6031 H         1 UNK         0.0616 
    135 H135       32.1966   27.7051    8.3666 H         1 UNK         0.0616 
    136 H136       30.9453   25.6575    7.5758 H         1 UNK         0.0634 
    137 H137       32.3254   25.4175    6.5242 H         1 UNK         0.0634 
@<TRIPOS>BOND
     1    1    2 1    
     2    1   72 1    
     3    1   73 1    
     4    1   74 1    
     5    2    3 2    
     6    2    4 am   BACKBONE|DICT|INTERRES
     7    4    5 1    
     8    4   75 1    
     9    5    6 1    
    10    5   35 1    
    11    5   76 1    
    12    6    7 1    
    13    6   77 1    
    14    6   78 1    
    15    7    8 1    
    16    8    9 1    
    17    8   79 1    
    18    8   80 1    
    19    9   10 ar   
    20    9   14 ar   
    21   10   11 ar   
    22   10   81 1    
    23   11   12 ar   
    24   11   71 1    
    25   12   13 ar   
    26   12   82 1    
    27   13   14 ar   
    28   13   15 1    
    29   14   83 1    
    30   15   16 1    
    31   15   84 1    
    32   15   85 1    
    33   16   17 1    
    34   17   18 1    
    35   17   86 1    
    36   17   87 1    
    37   18   19 1    
    38   18   37 1    
    39   18   88 1    
    40   19   20 am   BACKBONE|DICT|INTERRES
    41   19   89 1    
    42   20   21 2    
    43   20   22 1    
    44   22   23 1    
    45   22   24 1    
    46   22   90 1    
    47   23   91 1    
    48   23   92 1    
    49   23   93 1    
    50   24   25 am   BACKBONE|DICT|INTERRES
    51   24   94 1    
    52   25   26 2    
    53   25   27 1    
    54   27   28 1    
    55   27   29 1    
    56   27   95 1    
    57   28   96 1    
    58   28   97 1    
    59   28   98 1    
    60   29   30 am   BACKBONE|DICT|INTERRES
    61   29   99 1    
    62   30   31 2    
    63   30   32 1    
    64   32   33 1    
    65   32   34 1    
    66   32  100 1    
    67   33  101 1    
    68   33  102 1    
    69   33  103 1    
    70   34   35 am   BACKBONE|DICT|INTERRES
    71   34  104 1    
    72   35   36 2    
    73   37   38 2    
    74   37   39 am   BACKBONE|DICT|INTERRES
    75   39   40 1    
    76   39  105 1    
    77   40   41 1    
    78   40   42 1    
    79   40  106 1    
    80   41  107 1    
    81   41  108 1    
    82   41  109 1    
    83   42   43 2    
    84   42   44 am   BACKBONE|DICT|INTERRES
    85   44   45 1    
    86   44  110 1    
    87   45   46 1    
    88   45   47 1    
    89   45  111 1    
    90   46  112 1    
    91   46  113 1    
    92   46  114 1    
    93   47   48 2    
    94   47   49 am   BACKBONE|DICT|INTERRES
    95   49   50 1    
    96   49  115 1    
    97   50   51 1    
    98   50   52 1    
    99   50  116 1    
   100   51  117 1    
   101   51  118 1    
   102   51  119 1    
   103   52   53 2    
   104   52   54 am   BACKBONE|DICT|INTERRES
   105   54   55 1    
   106   54  120 1    
   107   55   56 1    
   108   55   57 1    
   109   55  121 1    
   110   56  122 1    
   111   56  123 1    
   112   56  124 1    
   113   57   58 2    
   114   57   59 am   BACKBONE|DICT|INTERRES
   115   59   60 1    
   116   59  125 1    
   117   60   61 1    
   118   60   62 1    
   119   60  126 1    
   120   61  127 1    
   121   61  128 1    
   122   61  129 1    
   123   62   63 2    
   124   62   64 am   BACKBONE|DICT|INTERRES
   125   64   65 1    
   126   64  130 1    
   127   65   66 1    
   128   65   69 1    
   129   65  131 1    
   130   66   67 am   BACKBONE|DICT|INTERRES
   131   66   68 2    
   132   67  132 1    
   133   67  133 1    
   134   69   70 1    
   135   69  134 1    
   136   69  135 1    
   137   70   71 1    
   138   71  136 1    
   139   71  137 1    
@<TRIPOS>SUBSTRUCTURE
     1 UNK         1 GROUP             0       ****    0 ROOT    
