@<TRIPOS>MOLECULE
3R136
137   139    1
SMALL
USER_CHARGES


@<TRIPOS>ATOM
      1 CA         32.2635   28.4679   -3.0412 C.3       0 UNK        -0.1979 
      2 C          30.9744   28.3440   -2.2429 C.2       0 UNK         0.4864 
      3 O          30.0222   29.0806   -2.5006 O.2       0 UNK        -0.5359 
      4 N          30.9380   27.4161   -1.2768 N.am      1 UNK        -0.4318 
      5 CA         29.7905   27.1695   -0.3955 C.3       1 UNK         0.0824 
      6 C6         30.2036   26.3711    0.8632 C.3       12 UNK        -0.0944 
      7 S7         30.8820   24.7073    0.5080 S.3       12 UNK        -0.2672 
      8 C8         31.9164   24.4024    1.9797 C.3       12 UNK         0.0333 
      9 C9         31.1668   24.6909    3.2727 C.ar      12 UNK        -0.0807 
     10 C10        31.6222   25.6860    4.1409 C.ar      12 UNK        -0.0894 
     11 C11        30.8963   26.0157    5.2887 C.ar      12 UNK        -0.0804 
     12 C12        29.7027   25.3414    5.5658 C.ar      12 UNK        -0.0824 
     13 C13        29.2438   24.3337    4.7100 C.ar      12 UNK        -0.0762 
     14 C14        29.9923   23.9984    3.5780 C.ar      12 UNK        -0.0782 
     15 C15        27.9249   23.6249    4.9881 C.3       12 UNK         0.0230 
     16 S16        26.7269   23.8415    3.6299 S.3       12 UNK        -0.2608 
     17 C17        26.5246   25.6540    3.6157 C.3       12 UNK        -0.0989 
     18 CA         25.6357   26.1275    2.4413 C.3       5 UNK         0.0716 
     19 N          24.2660   25.6214    2.5608 N.am      5 UNK        -0.4135 
     20 C          23.3703   25.2921    1.6155 C.2       4 UNK         0.5031 
     21 O          22.2062   25.0448    1.9274 O.2       4 UNK        -0.5229 
     22 CA         23.7408   25.1799    0.1174 C.3       4 UNK         0.0329 
     23 CB         23.7065   26.5408   -0.5981 C.3       4 UNK        -0.2001 
     24 N          24.9971   24.4925   -0.1724 N.am      4 UNK        -0.4303 
     25 C          25.2616   23.1999    0.0645 C.2       3 UNK         0.5044 
     26 O          24.4370   22.4109    0.5284 O.2       3 UNK        -0.5152 
     27 CA         26.6898   22.7062   -0.2683 C.3       3 UNK         0.0319 
     28 CB         26.7074   21.2528   -0.7864 C.3       3 UNK        -0.2001 
     29 N          27.4344   23.5969   -1.1724 N.am      3 UNK        -0.4354 
     30 C          27.1066   23.9512   -2.4263 C.2       2 UNK         0.4964 
     31 O          26.1698   23.4517   -3.0505 O.2       2 UNK        -0.5047 
     32 CA         27.9328   25.0725   -3.0940 C.3       2 UNK         0.0288 
     33 CB         27.0227   26.0893   -3.8164 C.3       2 UNK        -0.2113 
     34 N          28.8689   25.7802   -2.2065 N.am      2 UNK        -0.4145 
     35 C          28.5916   26.5077   -1.1106 C.2       1 UNK         0.5006 
     36 O          27.4594   26.6354   -0.6360 O.2       1 UNK        -0.5103 
     37 C          25.5986   27.6618    2.3962 C.2       5 UNK         0.5055 
     38 O          25.0058   28.2826    3.2821 O.2       5 UNK        -0.5220 
     39 N          26.2604   28.2385    1.3883 N.am      6 UNK        -0.4450 
     40 CA         26.5848   29.6607    1.3162 C.3       6 UNK         0.0367 
     41 CB         26.7167   30.0635   -0.1627 C.3       6 UNK        -0.1929 
     42 C          27.8942   29.9292    2.0764 C.2       6 UNK         0.5070 
     43 O          28.6457   28.9930    2.3597 O.2       6 UNK        -0.5237 
     44 N          28.1579   31.2056    2.3790 N.am      7 UNK        -0.4739 
     45 CA         29.4086   31.6505    2.9982 C.3       7 UNK         0.0276 
     46 CB         29.2672   33.1169    3.4372 C.3       7 UNK        -0.1927 
     47 C          30.6013   31.4823    2.0402 C.2       7 UNK         0.5013 
     48 O          30.4707   31.7572    0.8447 O.2       7 UNK        -0.5193 
     49 N          31.7408   31.0613    2.5909 N.am      8 UNK        -0.4253 
     50 CA         33.0014   30.8416    1.8916 C.3       8 UNK         0.0242 
     51 CB         33.0198   29.4145    1.3105 C.3       8 UNK        -0.2000 
     52 C          34.1399   31.0474    2.8957 C.2       8 UNK         0.4948 
     53 O          33.8870   31.0771    4.1029 O.2       8 UNK        -0.5275 
     54 N          35.3805   31.1390    2.3956 N.am      9 UNK        -0.4246 
     55 CA         36.5994   31.3057    3.2029 C.3       9 UNK         0.0261 
     56 CB         37.8179   31.4280    2.2739 C.3       9 UNK        -0.1959 
     57 C          36.8227   30.1889    4.2414 C.2       9 UNK         0.5033 
     58 O          37.3629   30.4566    5.3157 O.2       9 UNK        -0.5390 
     59 N          36.3488   28.9749    3.9260 N.am      10 UNK        -0.4215 
     60 CA         36.3112   27.8144    4.8191 C.3       10 UNK         0.0240 
     61 CB         35.8400   26.5874    4.0205 C.3       10 UNK        -0.1982 
     62 C          35.4330   28.0082    6.0718 C.2       10 UNK         0.4970 
     63 O          35.6538   27.3083    7.0608 O.2       10 UNK        -0.4916 
     64 N          34.4692   28.9383    6.0206 N.am      11 UNK        -0.4279 
     65 CA         33.6092   29.3129    7.1526 C.3       11 UNK         0.1003 
     66 C          34.2652   30.3408    8.1209 C.2       11 UNK         0.5709 
     67 N          35.4543   30.8661    7.8426 N.am      11 UNK        -0.7358 
     68 O          33.6883   30.6585    9.1583 O.2       11 UNK        -0.4999 
     69 C69        32.2001   29.7875    6.6913 C.3       12 UNK        -0.0954 
     70 S70        31.3858   28.7362    5.4361 S.3       12 UNK        -0.2268 
     71 C71        31.4169   27.0950    6.2251 C.3       12 UNK         0.0203 
     72 H72        33.0184   27.7542   -2.7115 H         1 UNK         0.0888 
     73 H73        32.0687   28.2918   -4.0987 H         1 UNK         0.0888 
     74 H74        32.6756   29.4708   -2.9324 H         1 UNK         0.0888 
     75 H75        31.7458   26.8323   -1.1095 H         1 UNK         0.3017 
     76 H76        29.4396   28.1454   -0.0552 H         1 UNK         0.0873 
     77 H77        30.9468   26.9445    1.4199 H         1 UNK         0.0745 
     78 H78        29.3545   26.2648    1.5419 H         1 UNK         0.0745 
     79 H79        32.2462   23.3628    1.9765 H         1 UNK         0.0705 
     80 H80        32.8171   25.0142    1.9074 H         1 UNK         0.0705 
     81 H81        32.5304   26.2266    3.9153 H         1 UNK         0.1334 
     82 H82        29.1297   25.6042    6.4446 H         1 UNK         0.1417 
     83 H83        29.6322   23.2324    2.9045 H         1 UNK         0.1562 
     84 H84        27.4762   23.9816    5.9165 H         1 UNK         0.0748 
     85 H85        28.1151   22.5598    5.1263 H         1 UNK         0.0748 
     86 H86        27.5142   26.1108    3.5406 H         1 UNK         0.0940 
     87 H87        26.1128   25.9703    4.5764 H         1 UNK         0.0940 
     88 H88        26.1197   25.7811    1.5349 H         1 UNK         0.0703 
     89 H89        23.9152   25.6590    3.5057 H         1 UNK         0.3081 
     90 H90        22.9541   24.5738   -0.3376 H         1 UNK         0.0719 
     91 H91        24.5764   27.1522   -0.3698 H         1 UNK         0.0809 
     92 H92        23.6776   26.4102   -1.6801 H         1 UNK         0.0809 
     93 H93        22.8196   27.1117   -0.3198 H         1 UNK         0.0809 
     94 H94        25.7431   25.0606   -0.5524 H         1 UNK         0.2990 
     95 H95        27.2340   22.7225    0.6772 H         1 UNK         0.0690 
     96 H96        27.7229   20.9205   -1.0013 H         1 UNK         0.0788 
     97 H97        26.1164   21.1387   -1.6955 H         1 UNK         0.0788 
     98 H98        26.2949   20.5679   -0.0444 H         1 UNK         0.0788 
     99 H99        28.2286   24.0648   -0.7576 H         1 UNK         0.2993 
    100 H100       28.5455   24.5790   -3.8499 H         1 UNK         0.0949 
    101 H101       27.6086   26.8690   -4.3037 H         1 UNK         0.0767 
    102 H102       26.4255   25.6053   -4.5902 H         1 UNK         0.0767 
    103 H103       26.3298   26.5735   -3.1271 H         1 UNK         0.0767 
    104 H104       29.8423   25.7151   -2.4702 H         1 UNK         0.3013 
    105 H105       26.7359   27.6463    0.7100 H         1 UNK         0.3121 
    106 H106       25.7840   30.2462    1.7733 H         1 UNK         0.0774 
    107 H107       26.9110   31.1319   -0.2635 H         1 UNK         0.0815 
    108 H108       27.5350   29.5391   -0.6571 H         1 UNK         0.0815 
    109 H109       25.8017   29.8480   -0.7148 H         1 UNK         0.0815 
    110 H110       27.5151   31.9257    2.0827 H         1 UNK         0.2987 
    111 H111       29.5814   31.0370    3.8861 H         1 UNK         0.0949 
    112 H112       29.0816   33.7764    2.5883 H         1 UNK         0.0806 
    113 H113       28.4495   33.2427    4.1471 H         1 UNK         0.0806 
    114 H114       30.1769   33.4660    3.9277 H         1 UNK         0.0806 
    115 H115       31.8015   30.9144    3.5920 H         1 UNK         0.3010 
    116 H116       33.1107   31.5753    1.0899 H         1 UNK         0.0829 
    117 H117       32.1934   29.2641    0.6161 H         1 UNK         0.0813 
    118 H118       33.9409   29.2180    0.7612 H         1 UNK         0.0813 
    119 H119       32.9339   28.6604    2.0944 H         1 UNK         0.0813 
    120 H120       35.5045   31.1055    1.3934 H         1 UNK         0.3038 
    121 H121       36.4964   32.2416    3.7562 H         1 UNK         0.0769 
    122 H122       37.9554   30.5330    1.6657 H         1 UNK         0.0811 
    123 H123       38.7335   31.5746    2.8490 H         1 UNK         0.0811 
    124 H124       37.7216   32.2808    1.6016 H         1 UNK         0.0811 
    125 H125       35.9278   28.8585    3.0163 H         1 UNK         0.3204 
    126 H126       37.3303   27.6300    5.1656 H         1 UNK         0.0748 
    127 H127       35.7947   25.7000    4.6538 H         1 UNK         0.0771 
    128 H128       34.8461   26.7385    3.5985 H         1 UNK         0.0771 
    129 H129       36.5221   26.3619    3.2004 H         1 UNK         0.0771 
    130 H130       34.3595   29.5147    5.1926 H         1 UNK         0.2980 
    131 H131       33.4576   28.4238    7.7657 H         1 UNK         0.0545 
    132 H132       35.9502   30.6169    6.9967 H         1 UNK         0.3459 
    133 H133       35.8622   31.5247    8.4867 H         1 UNK         0.3459 
    134 H134       31.5298   29.8610    7.5494 H         1 UNK         0.0616 
    135 H135       32.2628   30.7937    6.2736 H         1 UNK         0.0616 
    136 H136       30.8363   27.1293    7.1482 H         1 UNK         0.0634 
    137 H137       32.4375   26.8333    6.5036 H         1 UNK         0.0634 
@<TRIPOS>BOND
     1    1    2 1    
     2    1   72 1    
     3    1   73 1    
     4    1   74 1    
     5    2    3 2    
     6    2    4 am   BACKBONE|DICT|INTERRES
     7    4    5 1    
     8    4   75 1    
     9    5    6 1    
    10    5   35 1    
    11    5   76 1    
    12    6    7 1    
    13    6   77 1    
    14    6   78 1    
    15    7    8 1    
    16    8    9 1    
    17    8   79 1    
    18    8   80 1    
    19    9   10 ar   
    20    9   14 ar   
    21   10   11 ar   
    22   10   81 1    
    23   11   12 ar   
    24   11   71 1    
    25   12   13 ar   
    26   12   82 1    
    27   13   14 ar   
    28   13   15 1    
    29   14   83 1    
    30   15   16 1    
    31   15   84 1    
    32   15   85 1    
    33   16   17 1    
    34   17   18 1    
    35   17   86 1    
    36   17   87 1    
    37   18   19 1    
    38   18   37 1    
    39   18   88 1    
    40   19   20 am   BACKBONE|DICT|INTERRES
    41   19   89 1    
    42   20   21 2    
    43   20   22 1    
    44   22   23 1    
    45   22   24 1    
    46   22   90 1    
    47   23   91 1    
    48   23   92 1    
    49   23   93 1    
    50   24   25 am   BACKBONE|DICT|INTERRES
    51   24   94 1    
    52   25   26 2    
    53   25   27 1    
    54   27   28 1    
    55   27   29 1    
    56   27   95 1    
    57   28   96 1    
    58   28   97 1    
    59   28   98 1    
    60   29   30 am   BACKBONE|DICT|INTERRES
    61   29   99 1    
    62   30   31 2    
    63   30   32 1    
    64   32   33 1    
    65   32   34 1    
    66   32  100 1    
    67   33  101 1    
    68   33  102 1    
    69   33  103 1    
    70   34   35 am   BACKBONE|DICT|INTERRES
    71   34  104 1    
    72   35   36 2    
    73   37   38 2    
    74   37   39 am   BACKBONE|DICT|INTERRES
    75   39   40 1    
    76   39  105 1    
    77   40   41 1    
    78   40   42 1    
    79   40  106 1    
    80   41  107 1    
    81   41  108 1    
    82   41  109 1    
    83   42   43 2    
    84   42   44 am   BACKBONE|DICT|INTERRES
    85   44   45 1    
    86   44  110 1    
    87   45   46 1    
    88   45   47 1    
    89   45  111 1    
    90   46  112 1    
    91   46  113 1    
    92   46  114 1    
    93   47   48 2    
    94   47   49 am   BACKBONE|DICT|INTERRES
    95   49   50 1    
    96   49  115 1    
    97   50   51 1    
    98   50   52 1    
    99   50  116 1    
   100   51  117 1    
   101   51  118 1    
   102   51  119 1    
   103   52   53 2    
   104   52   54 am   BACKBONE|DICT|INTERRES
   105   54   55 1    
   106   54  120 1    
   107   55   56 1    
   108   55   57 1    
   109   55  121 1    
   110   56  122 1    
   111   56  123 1    
   112   56  124 1    
   113   57   58 2    
   114   57   59 am   BACKBONE|DICT|INTERRES
   115   59   60 1    
   116   59  125 1    
   117   60   61 1    
   118   60   62 1    
   119   60  126 1    
   120   61  127 1    
   121   61  128 1    
   122   61  129 1    
   123   62   63 2    
   124   62   64 am   BACKBONE|DICT|INTERRES
   125   64   65 1    
   126   64  130 1    
   127   65   66 1    
   128   65   69 1    
   129   65  131 1    
   130   66   67 am   BACKBONE|DICT|INTERRES
   131   66   68 2    
   132   67  132 1    
   133   67  133 1    
   134   69   70 1    
   135   69  134 1    
   136   69  135 1    
   137   70   71 1    
   138   71  136 1    
   139   71  137 1    
@<TRIPOS>SUBSTRUCTURE
     1 UNK         1 GROUP             0       ****    0 ROOT    
