@<TRIPOS>MOLECULE
3R136
137   139    1
SMALL
USER_CHARGES


@<TRIPOS>ATOM
      1 CA         24.8618   27.8832    2.0215 C.3       0 UNK        -0.1979 
      2 C          25.2263   26.4409    2.3388 C.2       0 UNK         0.4864 
      3 O          24.3361   25.6096    2.5276 O.2       0 UNK        -0.5359 
      4 N          26.5268   26.1288    2.3775 N.am      1 UNK        -0.4318 
      5 CA         27.0668   24.7852    2.5948 C.3       1 UNK         0.0824 
      6 C6         28.5846   24.7980    2.8819 C.3       12 UNK        -0.0944 
      7 S7         28.9988   25.7689    4.3687 S.3       12 UNK        -0.2672 
      8 C8         30.6649   25.1286    4.7571 C.3       12 UNK         0.0333 
      9 C9         31.7822   25.5121    3.7813 C.ar      12 UNK        -0.0807 
     10 C10        33.0261   24.8857    3.9230 C.ar      12 UNK        -0.0894 
     11 C11        34.0924   25.1905    3.0701 C.ar      12 UNK        -0.0804 
     12 C12        33.8997   26.1293    2.0509 C.ar      12 UNK        -0.0824 
     13 C13        32.6720   26.7771    1.9021 C.ar      12 UNK        -0.0762 
     14 C14        31.6212   26.4731    2.7728 C.ar      12 UNK        -0.0782 
     15 C15        32.4951   27.8331    0.8220 C.3       12 UNK         0.0230 
     16 S16        32.1886   27.1152   -0.8239 S.3       12 UNK        -0.2608 
     17 C17        30.5601   26.3157   -0.6223 C.3       12 UNK        -0.0989 
     18 CA         29.3854   27.1940   -1.1202 C.3       5 UNK         0.0716 
     19 N          28.2597   26.3693   -1.5678 N.am      5 UNK        -0.4135 
     20 C          27.4689   26.6838   -2.6021 C.2       4 UNK         0.5031 
     21 O          27.5704   27.7267   -3.2503 O.2       4 UNK        -0.5229 
     22 CA         26.4030   25.6599   -3.0074 C.3       4 UNK         0.0329 
     23 CB         27.0435   24.3302   -3.4462 C.3       4 UNK        -0.2001 
     24 N          25.4605   25.4046   -1.9202 N.am      4 UNK        -0.4303 
     25 C          24.1284   25.5371   -2.0148 C.2       3 UNK         0.5044 
     26 O          23.5606   26.0155   -2.9987 O.2       3 UNK        -0.5152 
     27 CA         23.2779   25.0425   -0.8216 C.3       3 UNK         0.0319 
     28 CB         21.8669   24.5813   -1.2446 C.3       3 UNK        -0.2001 
     29 N          23.9421   24.0109   -0.0148 N.am      3 UNK        -0.4354 
     30 C          24.3937   22.8124   -0.4274 C.2       2 UNK         0.4964 
     31 O          24.1607   22.3403   -1.5410 O.2       2 UNK        -0.5047 
     32 CA         25.2950   22.0283    0.5544 C.3       2 UNK         0.0288 
     33 CB         26.3564   21.1783   -0.1776 C.3       2 UNK        -0.2113 
     34 N          25.9308   22.8777    1.5737 N.am      2 UNK        -0.4145 
     35 C          26.7427   23.9258    1.3617 C.2       1 UNK         0.5006 
     36 O          27.1541   24.2805    0.2505 O.2       1 UNK        -0.5103 
     37 C          28.8947   28.1785   -0.0440 C.2       5 UNK         0.5055 
     38 O          28.1363   27.7773    0.8398 O.2       5 UNK        -0.5220 
     39 N          29.3296   29.4425   -0.1277 N.am      6 UNK        -0.4450 
     40 CA         28.9479   30.5203    0.7883 C.3       6 UNK         0.0367 
     41 CB         29.5057   31.8548    0.2641 C.3       6 UNK        -0.1929 
     42 C          29.4279   30.2585    2.2257 C.2       6 UNK         0.5070 
     43 O          30.6291   30.3245    2.4863 O.2       6 UNK        -0.5237 
     44 N          28.4845   30.0028    3.1417 N.am      7 UNK        -0.4739 
     45 CA         28.7434   29.6841    4.5530 C.3       7 UNK         0.0276 
     46 CB         27.4257   29.2651    5.2237 C.3       7 UNK        -0.1927 
     47 C          29.4329   30.8093    5.3507 C.2       7 UNK         0.5013 
     48 O          30.0303   30.5348    6.3910 O.2       7 UNK        -0.5193 
     49 N          29.3749   32.0458    4.8374 N.am      8 UNK        -0.4253 
     50 CA         30.1294   33.1983    5.3353 C.3       8 UNK         0.0242 
     51 CB         29.5652   34.4777    4.6956 C.3       8 UNK        -0.2000 
     52 C          31.6484   33.0974    5.0833 C.2       8 UNK         0.4948 
     53 O          32.4072   33.7972    5.7549 O.2       8 UNK        -0.5275 
     54 N          32.0682   32.2452    4.1375 N.am      9 UNK        -0.4246 
     55 CA         33.4606   31.9981    3.7663 C.3       9 UNK         0.0261 
     56 CB         33.6990   32.5364    2.3425 C.3       9 UNK        -0.1959 
     57 C          33.7683   30.4967    3.8899 C.2       9 UNK         0.5033 
     58 O          34.3835   29.9173    2.9920 O.2       9 UNK        -0.5390 
     59 N          33.3273   29.8857    4.9994 N.am      10 UNK        -0.4215 
     60 CA         33.4184   28.4515    5.2898 C.3       10 UNK         0.0240 
     61 CB         32.4044   28.0928    6.3920 C.3       10 UNK        -0.1982 
     62 C          34.8419   27.9520    5.6067 C.2       10 UNK         0.4970 
     63 O          35.0788   27.4255    6.6957 O.2       10 UNK        -0.4916 
     64 N          35.7602   28.1271    4.6490 N.am      11 UNK        -0.4279 
     65 CA         37.1643   27.6834    4.6865 C.3       11 UNK         0.1003 
     66 C          38.0282   28.3257    5.8184 C.2       11 UNK         0.5709 
     67 N          37.6298   29.4551    6.3925 N.am      11 UNK        -0.7358 
     68 O          39.0969   27.8224    6.1582 O.2       11 UNK        -0.4999 
     69 C69        37.2914   26.1319    4.6091 C.3       12 UNK        -0.0954 
     70 S70        36.8975   25.4888    2.9466 S.3       12 UNK        -0.2268 
     71 C71        35.4199   24.4504    3.2227 C.3       12 UNK         0.0203 
     72 H72        25.7462   28.5088    1.9053 H         1 UNK         0.0888 
     73 H73        24.2891   27.9313    1.0959 H         1 UNK         0.0888 
     74 H74        24.2538   28.3011    2.8233 H         1 UNK         0.0888 
     75 H75        27.2075   26.8220    2.0701 H         1 UNK         0.3017 
     76 H76        26.5640   24.3612    3.4668 H         1 UNK         0.0873 
     77 H77        29.1280   25.2110    2.0341 H         1 UNK         0.0745 
     78 H78        28.9519   23.7789    3.0179 H         1 UNK         0.0745 
     79 H79        30.6082   24.0417    4.8323 H         1 UNK         0.0705 
     80 H80        30.9362   25.4869    5.7499 H         1 UNK         0.0705 
     81 H81        33.1627   24.1479    4.7022 H         1 UNK         0.1334 
     82 H82        34.7065   26.3637    1.3703 H         1 UNK         0.1417 
     83 H83        30.6850   27.0012    2.6593 H         1 UNK         0.1562 
     84 H84        33.3913   28.4537    0.7744 H         1 UNK         0.0748 
     85 H85        31.6825   28.5079    1.0784 H         1 UNK         0.0748 
     86 H86        30.4144   25.9776    0.4007 H         1 UNK         0.0940 
     87 H87        30.6075   25.4008   -1.2155 H         1 UNK         0.0940 
     88 H88        29.7426   27.7724   -1.9754 H         1 UNK         0.0703 
     89 H89        28.0493   25.5467   -1.0107 H         1 UNK         0.3081 
     90 H90        25.8828   26.0734   -3.8740 H         1 UNK         0.0719 
     91 H91        27.7797   24.4901   -4.2351 H         1 UNK         0.0809 
     92 H92        27.5487   23.8262   -2.6212 H         1 UNK         0.0809 
     93 H93        26.2916   23.6449   -3.8383 H         1 UNK         0.0809 
     94 H94        25.8565   25.0186   -1.0689 H         1 UNK         0.2990 
     95 H95        23.1564   25.9048   -0.1650 H         1 UNK         0.0690 
     96 H96        21.2859   24.2445   -0.3861 H         1 UNK         0.0788 
     97 H97        21.9069   23.7637   -1.9650 H         1 UNK         0.0788 
     98 H98        21.3106   25.3961   -1.7096 H         1 UNK         0.0788 
     99 H99        24.1638   24.3007    0.9330 H         1 UNK         0.2993 
    100 H100       24.6325   21.3460    1.0893 H         1 UNK         0.0949 
    101 H101       27.0075   21.7922   -0.8010 H         1 UNK         0.0767 
    102 H102       26.9836   20.6332    0.5277 H         1 UNK         0.0767 
    103 H103       25.8873   20.4394   -0.8285 H         1 UNK         0.0767 
    104 H104       25.6299   22.7009    2.5230 H         1 UNK         0.3013 
    105 H105       29.9769   29.6859   -0.8635 H         1 UNK         0.3121 
    106 H106       27.8579   30.5878    0.7876 H         1 UNK         0.0774 
    107 H107       29.2324   32.6791    0.9242 H         1 UNK         0.0815 
    108 H108       30.5946   31.8406    0.1973 H         1 UNK         0.0815 
    109 H109       29.1117   32.0897   -0.7247 H         1 UNK         0.0815 
    110 H110       27.5206   29.9670    2.8435 H         1 UNK         0.2987 
    111 H111       29.4216   28.8282    4.5714 H         1 UNK         0.0949 
    112 H112       26.9894   28.3959    4.7304 H         1 UNK         0.0806 
    113 H113       27.5894   28.9912    6.2670 H         1 UNK         0.0806 
    114 H114       26.6894   30.0694    5.2081 H         1 UNK         0.0806 
    115 H115       28.8484   32.1769    3.9864 H         1 UNK         0.3010 
    116 H116       29.9817   33.2593    6.4158 H         1 UNK         0.0829 
    117 H117       29.6775   34.4707    3.6106 H         1 UNK         0.0813 
    118 H118       30.0826   35.3622    5.0704 H         1 UNK         0.0813 
    119 H119       28.5068   34.6037    4.9246 H         1 UNK         0.0813 
    120 H120       31.3897   31.6650    3.6481 H         1 UNK         0.3038 
    121 H121       34.1406   32.5144    4.4467 H         1 UNK         0.0769 
    122 H122       33.4787   33.6021    2.2799 H         1 UNK         0.0811 
    123 H123       33.0747   32.0208    1.6112 H         1 UNK         0.0811 
    124 H124       34.7384   32.4021    2.0403 H         1 UNK         0.0811 
    125 H125       32.8366   30.4462    5.6820 H         1 UNK         0.3204 
    126 H126       33.1175   27.9252    4.3886 H         1 UNK         0.0748 
    127 H127       32.5592   28.6854    7.2942 H         1 UNK         0.0771 
    128 H128       31.3818   28.2519    6.0521 H         1 UNK         0.0771 
    129 H129       32.4826   27.0425    6.6744 H         1 UNK         0.0771 
    130 H130       35.4655   28.6254    3.8124 H         1 UNK         0.2980 
    131 H131       37.6106   28.0875    3.7774 H         1 UNK         0.0545 
    132 H132       38.1997   29.8701    7.1126 H         1 UNK         0.3459 
    133 H133       36.7612   29.8861    6.1219 H         1 UNK         0.3459 
    134 H134       36.6721   25.6479    5.3651 H         1 UNK         0.0616 
    135 H135       38.3134   25.8100    4.8140 H         1 UNK         0.0616 
    136 H136       35.4918   23.9736    4.2013 H         1 UNK         0.0634 
    137 H137       35.4355   23.6423    2.4905 H         1 UNK         0.0634 
@<TRIPOS>BOND
     1    1    2 1    
     2    1   72 1    
     3    1   73 1    
     4    1   74 1    
     5    2    3 2    
     6    2    4 am   BACKBONE|DICT|INTERRES
     7    4    5 1    
     8    4   75 1    
     9    5    6 1    
    10    5   35 1    
    11    5   76 1    
    12    6    7 1    
    13    6   77 1    
    14    6   78 1    
    15    7    8 1    
    16    8    9 1    
    17    8   79 1    
    18    8   80 1    
    19    9   10 ar   
    20    9   14 ar   
    21   10   11 ar   
    22   10   81 1    
    23   11   12 ar   
    24   11   71 1    
    25   12   13 ar   
    26   12   82 1    
    27   13   14 ar   
    28   13   15 1    
    29   14   83 1    
    30   15   16 1    
    31   15   84 1    
    32   15   85 1    
    33   16   17 1    
    34   17   18 1    
    35   17   86 1    
    36   17   87 1    
    37   18   19 1    
    38   18   37 1    
    39   18   88 1    
    40   19   20 am   BACKBONE|DICT|INTERRES
    41   19   89 1    
    42   20   21 2    
    43   20   22 1    
    44   22   23 1    
    45   22   24 1    
    46   22   90 1    
    47   23   91 1    
    48   23   92 1    
    49   23   93 1    
    50   24   25 am   BACKBONE|DICT|INTERRES
    51   24   94 1    
    52   25   26 2    
    53   25   27 1    
    54   27   28 1    
    55   27   29 1    
    56   27   95 1    
    57   28   96 1    
    58   28   97 1    
    59   28   98 1    
    60   29   30 am   BACKBONE|DICT|INTERRES
    61   29   99 1    
    62   30   31 2    
    63   30   32 1    
    64   32   33 1    
    65   32   34 1    
    66   32  100 1    
    67   33  101 1    
    68   33  102 1    
    69   33  103 1    
    70   34   35 am   BACKBONE|DICT|INTERRES
    71   34  104 1    
    72   35   36 2    
    73   37   38 2    
    74   37   39 am   BACKBONE|DICT|INTERRES
    75   39   40 1    
    76   39  105 1    
    77   40   41 1    
    78   40   42 1    
    79   40  106 1    
    80   41  107 1    
    81   41  108 1    
    82   41  109 1    
    83   42   43 2    
    84   42   44 am   BACKBONE|DICT|INTERRES
    85   44   45 1    
    86   44  110 1    
    87   45   46 1    
    88   45   47 1    
    89   45  111 1    
    90   46  112 1    
    91   46  113 1    
    92   46  114 1    
    93   47   48 2    
    94   47   49 am   BACKBONE|DICT|INTERRES
    95   49   50 1    
    96   49  115 1    
    97   50   51 1    
    98   50   52 1    
    99   50  116 1    
   100   51  117 1    
   101   51  118 1    
   102   51  119 1    
   103   52   53 2    
   104   52   54 am   BACKBONE|DICT|INTERRES
   105   54   55 1    
   106   54  120 1    
   107   55   56 1    
   108   55   57 1    
   109   55  121 1    
   110   56  122 1    
   111   56  123 1    
   112   56  124 1    
   113   57   58 2    
   114   57   59 am   BACKBONE|DICT|INTERRES
   115   59   60 1    
   116   59  125 1    
   117   60   61 1    
   118   60   62 1    
   119   60  126 1    
   120   61  127 1    
   121   61  128 1    
   122   61  129 1    
   123   62   63 2    
   124   62   64 am   BACKBONE|DICT|INTERRES
   125   64   65 1    
   126   64  130 1    
   127   65   66 1    
   128   65   69 1    
   129   65  131 1    
   130   66   67 am   BACKBONE|DICT|INTERRES
   131   66   68 2    
   132   67  132 1    
   133   67  133 1    
   134   69   70 1    
   135   69  134 1    
   136   69  135 1    
   137   70   71 1    
   138   71  136 1    
   139   71  137 1    
@<TRIPOS>SUBSTRUCTURE
     1 UNK         1 GROUP             0       ****    0 ROOT    
