@<TRIPOS>MOLECULE
3R136
137   139    1
SMALL
USER_CHARGES


@<TRIPOS>ATOM
      1 CA         26.0749   21.2180    4.4915 C.3       0 UNK        -0.1979 
      2 C          26.4209   20.5921    3.1482 C.2       0 UNK         0.4864 
      3 O          25.8559   19.5575    2.7896 O.2       0 UNK        -0.5359 
      4 N          27.3500   21.2085    2.4083 N.am      1 UNK        -0.4318 
      5 CA         27.7470   20.8151    1.0541 C.3       1 UNK         0.0824 
      6 C6         29.1431   21.3800    0.6765 C.3       12 UNK        -0.0944 
      7 S7         29.3288   23.1814    0.9394 S.3       12 UNK        -0.2672 
      8 C8         30.4159   23.1910    2.3985 C.3       12 UNK         0.0333 
      9 C9         30.5868   24.5931    2.9613 C.ar      12 UNK        -0.0807 
     10 C10        31.6772   25.3804    2.5815 C.ar      12 UNK        -0.0894 
     11 C11        31.8576   26.6576    3.1236 C.ar      12 UNK        -0.0804 
     12 C12        30.9274   27.1485    4.0463 C.ar      12 UNK        -0.0824 
     13 C13        29.8248   26.3754    4.4228 C.ar      12 UNK        -0.0762 
     14 C14        29.6658   25.0951    3.8839 C.ar      12 UNK        -0.0782 
     15 C15        28.8006   26.9154    5.4101 C.3       12 UNK         0.0230 
     16 S16        27.1624   27.1111    4.6376 S.3       12 UNK        -0.2608 
     17 C17        27.4263   28.5676    3.5716 C.3       12 UNK        -0.0989 
     18 CA         27.8760   28.2159    2.1291 C.3       5 UNK         0.0716 
     19 N          26.9547   27.2921    1.4679 N.am      5 UNK        -0.4135 
     20 C          27.2290   26.6176    0.3454 C.2       4 UNK         0.5031 
     21 O          28.3117   26.6891   -0.2412 O.2       4 UNK        -0.5229 
     22 CA         26.1006   25.7031   -0.1717 C.3       4 UNK         0.0329 
     23 CB         24.8521   26.5077   -0.5938 C.3       4 UNK        -0.2001 
     24 N          26.5343   24.7915   -1.2375 N.am      4 UNK        -0.4303 
     25 C          26.9081   25.0869   -2.4942 C.2       3 UNK         0.5044 
     26 O          26.8397   26.2101   -2.9961 O.2       3 UNK        -0.5152 
     27 CA         27.4625   23.9321   -3.3536 C.3       3 UNK         0.0319 
     28 CB         28.9947   24.0262   -3.4446 C.3       3 UNK        -0.2001 
     29 N          27.1031   22.6026   -2.8554 N.am      3 UNK        -0.4354 
     30 C          25.8785   22.0611   -2.9208 C.2       2 UNK         0.4964 
     31 O          24.9266   22.5876   -3.4977 O.2       2 UNK        -0.5047 
     32 CA         25.6732   20.7130   -2.2026 C.3       2 UNK         0.0288 
     33 CB         25.7736   19.5502   -3.2035 C.3       2 UNK        -0.2113 
     34 N          26.6047   20.4757   -1.0911 N.am      2 UNK        -0.4145 
     35 C          26.6711   21.2175    0.0247 C.2       1 UNK         0.5006 
     36 O          25.9607   22.2062    0.2282 O.2       1 UNK        -0.5103 
     37 C          28.0320   29.4977    1.2897 C.2       5 UNK         0.5055 
     38 O          27.0597   30.2437    1.1495 O.2       5 UNK        -0.5220 
     39 N          29.2393   29.7442    0.7633 N.am      6 UNK        -0.4450 
     40 CA         29.5827   30.9926    0.0712 C.3       6 UNK         0.0367 
     41 CB         30.8090   30.7666   -0.8275 C.3       6 UNK        -0.1929 
     42 C          29.8330   32.1523    1.0536 C.2       6 UNK         0.5070 
     43 O          29.6666   33.3132    0.6791 O.2       6 UNK        -0.5237 
     44 N          30.2116   31.8153    2.2901 N.am      7 UNK        -0.4739 
     45 CA         30.4232   32.7059    3.4237 C.3       7 UNK         0.0276 
     46 CB         31.8011   33.3823    3.3092 C.3       7 UNK        -0.1927 
     47 C          30.3216   31.8622    4.7016 C.2       7 UNK         0.5013 
     48 O          30.2184   30.6334    4.6208 O.2       7 UNK        -0.5193 
     49 N          30.3735   32.5236    5.8641 N.am      8 UNK        -0.4253 
     50 CA         30.3832   31.8949    7.1877 C.3       8 UNK         0.0242 
     51 CB         30.0646   32.9621    8.2512 C.3       8 UNK        -0.2000 
     52 C          31.7242   31.1856    7.4570 C.2       8 UNK         0.4948 
     53 O          32.5901   31.7404    8.1361 O.2       8 UNK        -0.5275 
     54 N          31.8917   29.9996    6.8563 N.am      9 UNK        -0.4246 
     55 CA         33.0531   29.0954    6.8709 C.3       9 UNK         0.0261 
     56 CB         33.3947   28.6331    8.3003 C.3       9 UNK        -0.1959 
     57 C          34.3014   29.6392    6.1512 C.2       9 UNK         0.5033 
     58 O          34.9834   28.8739    5.4687 O.2       9 UNK        -0.5390 
     59 N          34.5767   30.9411    6.2797 N.am      10 UNK        -0.4215 
     60 CA         35.6703   31.6606    5.6252 C.3       10 UNK         0.0240 
     61 CB         35.9750   32.9342    6.4364 C.3       10 UNK        -0.1982 
     62 C          35.3602   31.9589    4.1438 C.2       10 UNK         0.4970 
     63 O          35.3341   33.1242    3.7443 O.2       10 UNK        -0.4916 
     64 N          35.1152   30.9029    3.3577 N.am      11 UNK        -0.4279 
     65 CA         34.8291   30.9713    1.9137 C.3       11 UNK         0.1003 
     66 C          36.0312   31.4222    1.0316 C.2       11 UNK         0.5709 
     67 N          37.2660   31.3947    1.5201 N.am      11 UNK        -0.7358 
     68 O          35.8365   31.8084   -0.1184 O.2       11 UNK        -0.4999 
     69 C69        34.2345   29.6443    1.3748 C.3       12 UNK        -0.0954 
     70 S70        32.6667   29.1585    2.1747 S.3       12 UNK        -0.2268 
     71 C71        33.0823   27.4766    2.7356 C.3       12 UNK         0.0203 
     72 H72        26.2725   20.5114    5.2971 H         1 UNK         0.0888 
     73 H73        26.6548   22.1209    4.6825 H         1 UNK         0.0888 
     74 H74        25.0181   21.4821    4.5205 H         1 UNK         0.0888 
     75 H75        27.7411   22.0833    2.7248 H         1 UNK         0.3017 
     76 H76        27.8180   19.7250    1.0359 H         1 UNK         0.0873 
     77 H77        29.9056   20.8571    1.2559 H         1 UNK         0.0745 
     78 H78        29.3835   21.1596   -0.3652 H         1 UNK         0.0745 
     79 H79        30.0049   22.5349    3.1674 H         1 UNK         0.0705 
     80 H80        31.3860   22.7725    2.1258 H         1 UNK         0.0705 
     81 H81        32.3934   24.9895    1.8715 H         1 UNK         0.1334 
     82 H82        31.0604   28.1373    4.4614 H         1 UNK         0.1417 
     83 H83        28.8158   24.4945    4.1775 H         1 UNK         0.1562 
     84 H84        29.1220   27.8682    5.8343 H         1 UNK         0.0748 
     85 H85        28.7149   26.2207    6.2467 H         1 UNK         0.0748 
     86 H86        28.1530   29.2256    4.0483 H         1 UNK         0.0940 
     87 H87        26.4895   29.1284    3.5535 H         1 UNK         0.0940 
     88 H88        28.8483   27.7239    2.1872 H         1 UNK         0.0703 
     89 H89        26.0484   27.1894    1.8992 H         1 UNK         0.3081 
     90 H90        25.8172   25.0557    0.6600 H         1 UNK         0.0719 
     91 H91        25.0874   27.2612   -1.3459 H         1 UNK         0.0809 
     92 H92        24.0806   25.8553   -1.0031 H         1 UNK         0.0809 
     93 H93        24.4116   27.0301    0.2558 H         1 UNK         0.0809 
     94 H94        26.6191   23.8265   -0.9401 H         1 UNK         0.2990 
     95 H95        27.0512   24.0439   -4.3591 H         1 UNK         0.0690 
     96 H96        29.4037   23.2577   -4.1007 H         1 UNK         0.0788 
     97 H97        29.4631   23.9200   -2.4648 H         1 UNK         0.0788 
     98 H98        29.3024   24.9922   -3.8477 H         1 UNK         0.0788 
     99 H99        27.8277   22.0882   -2.3772 H         1 UNK         0.2993 
    100 H100       24.6625   20.7231   -1.7886 H         1 UNK         0.0949 
    101 H101       25.0722   19.6837   -4.0287 H         1 UNK         0.0767 
    102 H102       26.7726   19.4726   -3.6346 H         1 UNK         0.0767 
    103 H103       25.5352   18.5971   -2.7309 H         1 UNK         0.0767 
    104 H104       27.2238   19.6831   -1.1874 H         1 UNK         0.3013 
    105 H105       29.9818   29.0696    0.8896 H         1 UNK         0.3121 
    106 H106       28.7457   31.2782   -0.5700 H         1 UNK         0.0774 
    107 H107       31.6980   30.5199   -0.2487 H         1 UNK         0.0815 
    108 H108       31.0380   31.6650   -1.4021 H         1 UNK         0.0815 
    109 H109       30.6364   29.9611   -1.5413 H         1 UNK         0.0815 
    110 H110       30.2937   30.8352    2.5335 H         1 UNK         0.2987 
    111 H111       29.6335   33.4600    3.4404 H         1 UNK         0.0949 
    112 H112       32.6018   32.6465    3.3609 H         1 UNK         0.0806 
    113 H113       31.9069   33.9262    2.3706 H         1 UNK         0.0806 
    114 H114       31.9645   34.0986    4.1147 H         1 UNK         0.0806 
    115 H115       30.4790   33.5278    5.8460 H         1 UNK         0.3010 
    116 H116       29.5924   31.1420    7.2241 H         1 UNK         0.0829 
    117 H117       30.7943   33.7728    8.2461 H         1 UNK         0.0813 
    118 H118       29.0780   33.3979    8.0929 H         1 UNK         0.0813 
    119 H119       30.0685   32.5275    9.2518 H         1 UNK         0.0813 
    120 H120       31.1580   29.7416    6.2041 H         1 UNK         0.3038 
    121 H121       32.7411   28.2118    6.3122 H         1 UNK         0.0769 
    122 H122       33.7382   29.4568    8.9268 H         1 UNK         0.0811 
    123 H123       34.1893   27.8858    8.2863 H         1 UNK         0.0811 
    124 H124       32.5316   28.1787    8.7866 H         1 UNK         0.0811 
    125 H125       33.9622   31.4794    6.8867 H         1 UNK         0.3204 
    126 H126       36.5634   31.0325    5.6464 H         1 UNK         0.0748 
    127 H127       36.8104   33.4856    6.0026 H         1 UNK         0.0771 
    128 H128       35.1174   33.6079    6.4669 H         1 UNK         0.0771 
    129 H129       36.2473   32.6934    7.4642 H         1 UNK         0.0771 
    130 H130       35.1262   29.9807    3.7803 H         1 UNK         0.2980 
    131 H131       34.0679   31.7408    1.7768 H         1 UNK         0.0545 
    132 H132       38.0331   31.6930    0.9386 H         1 UNK         0.3459 
    133 H133       37.4384   31.0752    2.4593 H         1 UNK         0.3459 
    134 H134       34.0302   29.7239    0.3055 H         1 UNK         0.0616 
    135 H135       34.9682   28.8432    1.4795 H         1 UNK         0.0616 
    136 H136       33.6306   26.9697    1.9401 H         1 UNK         0.0634 
    137 H137       33.7574   27.5351    3.5884 H         1 UNK         0.0634 
@<TRIPOS>BOND
     1    1    2 1    
     2    1   72 1    
     3    1   73 1    
     4    1   74 1    
     5    2    3 2    
     6    2    4 am   BACKBONE|DICT|INTERRES
     7    4    5 1    
     8    4   75 1    
     9    5    6 1    
    10    5   35 1    
    11    5   76 1    
    12    6    7 1    
    13    6   77 1    
    14    6   78 1    
    15    7    8 1    
    16    8    9 1    
    17    8   79 1    
    18    8   80 1    
    19    9   10 ar   
    20    9   14 ar   
    21   10   11 ar   
    22   10   81 1    
    23   11   12 ar   
    24   11   71 1    
    25   12   13 ar   
    26   12   82 1    
    27   13   14 ar   
    28   13   15 1    
    29   14   83 1    
    30   15   16 1    
    31   15   84 1    
    32   15   85 1    
    33   16   17 1    
    34   17   18 1    
    35   17   86 1    
    36   17   87 1    
    37   18   19 1    
    38   18   37 1    
    39   18   88 1    
    40   19   20 am   BACKBONE|DICT|INTERRES
    41   19   89 1    
    42   20   21 2    
    43   20   22 1    
    44   22   23 1    
    45   22   24 1    
    46   22   90 1    
    47   23   91 1    
    48   23   92 1    
    49   23   93 1    
    50   24   25 am   BACKBONE|DICT|INTERRES
    51   24   94 1    
    52   25   26 2    
    53   25   27 1    
    54   27   28 1    
    55   27   29 1    
    56   27   95 1    
    57   28   96 1    
    58   28   97 1    
    59   28   98 1    
    60   29   30 am   BACKBONE|DICT|INTERRES
    61   29   99 1    
    62   30   31 2    
    63   30   32 1    
    64   32   33 1    
    65   32   34 1    
    66   32  100 1    
    67   33  101 1    
    68   33  102 1    
    69   33  103 1    
    70   34   35 am   BACKBONE|DICT|INTERRES
    71   34  104 1    
    72   35   36 2    
    73   37   38 2    
    74   37   39 am   BACKBONE|DICT|INTERRES
    75   39   40 1    
    76   39  105 1    
    77   40   41 1    
    78   40   42 1    
    79   40  106 1    
    80   41  107 1    
    81   41  108 1    
    82   41  109 1    
    83   42   43 2    
    84   42   44 am   BACKBONE|DICT|INTERRES
    85   44   45 1    
    86   44  110 1    
    87   45   46 1    
    88   45   47 1    
    89   45  111 1    
    90   46  112 1    
    91   46  113 1    
    92   46  114 1    
    93   47   48 2    
    94   47   49 am   BACKBONE|DICT|INTERRES
    95   49   50 1    
    96   49  115 1    
    97   50   51 1    
    98   50   52 1    
    99   50  116 1    
   100   51  117 1    
   101   51  118 1    
   102   51  119 1    
   103   52   53 2    
   104   52   54 am   BACKBONE|DICT|INTERRES
   105   54   55 1    
   106   54  120 1    
   107   55   56 1    
   108   55   57 1    
   109   55  121 1    
   110   56  122 1    
   111   56  123 1    
   112   56  124 1    
   113   57   58 2    
   114   57   59 am   BACKBONE|DICT|INTERRES
   115   59   60 1    
   116   59  125 1    
   117   60   61 1    
   118   60   62 1    
   119   60  126 1    
   120   61  127 1    
   121   61  128 1    
   122   61  129 1    
   123   62   63 2    
   124   62   64 am   BACKBONE|DICT|INTERRES
   125   64   65 1    
   126   64  130 1    
   127   65   66 1    
   128   65   69 1    
   129   65  131 1    
   130   66   67 am   BACKBONE|DICT|INTERRES
   131   66   68 2    
   132   67  132 1    
   133   67  133 1    
   134   69   70 1    
   135   69  134 1    
   136   69  135 1    
   137   70   71 1    
   138   71  136 1    
   139   71  137 1    
@<TRIPOS>SUBSTRUCTURE
     1 UNK         1 GROUP             0       ****    0 ROOT    
