@<TRIPOS>MOLECULE
3R136
137   139    1
SMALL
USER_CHARGES


@<TRIPOS>ATOM
      1 CA         26.6948   22.4045    2.2893 C.3       0 UNK        -0.1979 
      2 C          27.1671   21.8043    0.9751 C.2       0 UNK         0.4864 
      3 O          26.6427   20.7677    0.5639 O.2       0 UNK        -0.5359 
      4 N          28.1485   22.4422    0.3257 N.am      1 UNK        -0.4318 
      5 CA         28.7602   21.9871   -0.9263 C.3       1 UNK         0.0824 
      6 C6         30.1709   21.3619   -0.7320 C.3       12 UNK        -0.0944 
      7 S7         30.1780   19.9521    0.4308 S.3       12 UNK        -0.2672 
      8 C8         31.6791   20.2520    1.4202 C.3       12 UNK         0.0333 
      9 C9         31.6113   21.5380    2.2351 C.ar      12 UNK        -0.0807 
     10 C10        32.2778   22.6822    1.7883 C.ar      12 UNK        -0.0894 
     11 C11        32.2492   23.8611    2.5354 C.ar      12 UNK        -0.0804 
     12 C12        31.5736   23.8843    3.7587 C.ar      12 UNK        -0.0824 
     13 C13        30.8982   22.7491    4.2173 C.ar      12 UNK        -0.0762 
     14 C14        30.9154   21.5795    3.4478 C.ar      12 UNK        -0.0782 
     15 C15        30.1676   22.7765    5.5518 C.3       12 UNK         0.0230 
     16 S16        28.4428   23.3250    5.3543 S.3       12 UNK        -0.2608 
     17 C17        28.4648   25.0189    6.0417 C.3       12 UNK        -0.0989 
     18 CA         28.6722   26.1348    4.9792 C.3       5 UNK         0.0716 
     19 N          27.7576   26.0327    3.8317 N.am      5 UNK        -0.4135 
     20 C          26.4327   26.2397    3.8232 C.2       4 UNK         0.5031 
     21 O          25.7796   26.5189    4.8301 O.2       4 UNK        -0.5229 
     22 CA         25.7219   26.1472    2.4530 C.3       4 UNK         0.0329 
     23 CB         24.2826   26.6947    2.5000 C.3       4 UNK        -0.2001 
     24 N          26.4408   26.8149    1.3593 N.am      4 UNK        -0.4303 
     25 C          27.5458   26.3598    0.7572 C.2       3 UNK         0.5044 
     26 O          28.1430   25.3363    1.1115 O.2       3 UNK        -0.5152 
     27 CA         28.0812   27.1880   -0.4174 C.3       3 UNK         0.0319 
     28 CB         28.7650   28.4805    0.0585 C.3       3 UNK        -0.2001 
     29 N          29.0408   26.3492   -1.1199 N.am      3 UNK        -0.4354 
     30 C          29.1880   26.2470   -2.4430 C.2       2 UNK         0.4964 
     31 O          28.6743   27.0123   -3.2596 O.2       2 UNK        -0.5047 
     32 CA         30.0220   25.0503   -2.9363 C.3       2 UNK         0.0288 
     33 CB         31.5095   25.4300   -3.0225 C.3       2 UNK        -0.2113 
     34 N          29.8754   23.8562   -2.0919 N.am      2 UNK        -0.4145 
     35 C          28.7334   23.1719   -1.9084 C.2       1 UNK         0.5006 
     36 O          27.6741   23.4538   -2.4721 O.2       1 UNK        -0.5103 
     37 C          28.6623   27.5523    5.6062 C.2       5 UNK         0.5055 
     38 O          28.8176   27.6958    6.8206 O.2       5 UNK        -0.5220 
     39 N          28.4449   28.5723    4.7682 N.am      6 UNK        -0.4450 
     40 CA         28.2048   29.9661    5.1225 C.3       6 UNK         0.0367 
     41 CB         26.7957   30.1175    5.7378 C.3       6 UNK        -0.1929 
     42 C          28.3766   30.8082    3.8479 C.2       6 UNK         0.5070 
     43 O          28.8873   30.2967    2.8493 O.2       6 UNK        -0.5237 
     44 N          27.9428   32.0741    3.8979 N.am      7 UNK        -0.4739 
     45 CA         28.0037   33.0657    2.8175 C.3       7 UNK         0.0276 
     46 CB         27.1687   32.6196    1.5926 C.3       7 UNK        -0.1927 
     47 C          29.4573   33.4659    2.5001 C.2       7 UNK         0.5013 
     48 O          30.1776   33.8352    3.4305 O.2       7 UNK        -0.5193 
     49 N          29.8477   33.4213    1.2168 N.am      8 UNK        -0.4253 
     50 CA         31.1346   33.8569    0.6595 C.3       8 UNK         0.0242 
     51 CB         31.1863   33.4773   -0.8307 C.3       8 UNK        -0.2000 
     52 C          32.3492   33.2885    1.4131 C.2       8 UNK         0.4948 
     53 O          32.6630   32.1063    1.2586 O.2       8 UNK        -0.5275 
     54 N          32.9641   34.1350    2.2536 N.am      9 UNK        -0.4246 
     55 CA         34.0774   33.8386    3.1667 C.3       9 UNK         0.0261 
     56 CB         35.3767   33.5971    2.3689 C.3       9 UNK        -0.1959 
     57 C          33.7775   32.7062    4.1745 C.2       9 UNK         0.5033 
     58 O          34.7064   32.0237    4.6099 O.2       9 UNK        -0.5390 
     59 N          32.4906   32.5226    4.5159 N.am      10 UNK        -0.4215 
     60 CA         31.9302   31.4180    5.3041 C.3       10 UNK         0.0240 
     61 CB         32.3827   31.4971    6.7776 C.3       10 UNK        -0.1982 
     62 C          32.2001   30.0451    4.6523 C.2       10 UNK         0.4970 
     63 O          32.6108   29.1081    5.3383 O.2       10 UNK        -0.4916 
     64 N          31.9814   29.9751    3.3320 N.am      11 UNK        -0.4279 
     65 CA         32.3785   28.8835    2.4360 C.3       11 UNK         0.1003 
     66 C          33.9224   28.8611    2.2536 C.2       11 UNK         0.5709 
     67 N          34.4809   29.9123    1.6686 N.am      11 UNK        -0.7358 
     68 O          34.6169   27.9262    2.6442 O.2       11 UNK        -0.4999 
     69 C69        31.7222   27.5181    2.7907 C.3       12 UNK        -0.0954 
     70 S70        31.7746   26.3365    1.3998 S.3       12 UNK        -0.2268 
     71 C71        32.9604   25.1003    2.0180 C.3       12 UNK         0.0203 
     72 H72        25.6461   22.6901    2.2192 H         1 UNK         0.0888 
     73 H73        26.7963   21.6732    3.0907 H         1 UNK         0.0888 
     74 H74        27.2782   23.2814    2.5653 H         1 UNK         0.0888 
     75 H75        28.4667   23.3400    0.6771 H         1 UNK         0.3017 
     76 H76        28.1312   21.2204   -1.3838 H         1 UNK         0.0873 
     77 H77        30.8765   22.1123   -0.3844 H         1 UNK         0.0745 
     78 H78        30.5572   21.0019   -1.6874 H         1 UNK         0.0745 
     79 H79        32.5454   20.2631    0.7568 H         1 UNK         0.0705 
     80 H80        31.8273   19.4065    2.0935 H         1 UNK         0.0705 
     81 H81        32.8215   22.6553    0.8539 H         1 UNK         0.1334 
     82 H82        31.5736   24.7876    4.3508 H         1 UNK         0.1417 
     83 H83        30.3963   20.6970    3.7967 H         1 UNK         0.1562 
     84 H84        30.7002   23.4109    6.2612 H         1 UNK         0.0748 
     85 H85        30.1647   21.7777    5.9908 H         1 UNK         0.0748 
     86 H86        29.2292   25.0800    6.8181 H         1 UNK         0.0940 
     87 H87        27.5143   25.1712    6.5565 H         1 UNK         0.0940 
     88 H88        29.6718   26.0102    4.5662 H         1 UNK         0.0703 
     89 H89        28.1811   25.7664    2.9466 H         1 UNK         0.3081 
     90 H90        25.6537   25.0871    2.2087 H         1 UNK         0.0719 
     91 H91        24.2631   27.7539    2.7598 H         1 UNK         0.0809 
     92 H92        23.7786   26.5733    1.5410 H         1 UNK         0.0809 
     93 H93        23.6844   26.1653    3.2431 H         1 UNK         0.0809 
     94 H94        26.0381   27.6801    1.0287 H         1 UNK         0.2990 
     95 H95        27.2459   27.4309   -1.0776 H         1 UNK         0.0690 
     96 H96        29.2185   29.0193   -0.7734 H         1 UNK         0.0788 
     97 H97        29.5468   28.2818    0.7912 H         1 UNK         0.0788 
     98 H98        28.0468   29.1550    0.5253 H         1 UNK         0.0788 
     99 H99        29.4719   25.6517   -0.5263 H         1 UNK         0.2993 
    100 H100       29.6701   24.7962   -3.9386 H         1 UNK         0.0949 
    101 H101       32.1030   24.6197   -3.4466 H         1 UNK         0.0767 
    102 H102       31.6522   26.3028   -3.6614 H         1 UNK         0.0767 
    103 H103       31.9224   25.6733   -2.0422 H         1 UNK         0.0767 
    104 H104       30.7019   23.5555   -1.5969 H         1 UNK         0.3013 
    105 H105       28.4161   28.4040    3.7702 H         1 UNK         0.3121 
    106 H106       28.9561   30.2803    5.8484 H         1 UNK         0.0774 
    107 H107       26.6130   31.1353    6.0830 H         1 UNK         0.0815 
    108 H108       26.0158   29.8666    5.0174 H         1 UNK         0.0815 
    109 H109       26.6642   29.4677    6.6030 H         1 UNK         0.0815 
    110 H110       27.5691   32.4148    4.7728 H         1 UNK         0.2987 
    111 H111       27.5346   33.9685    3.2120 H         1 UNK         0.0949 
    112 H112       27.5919   31.7481    1.0921 H         1 UNK         0.0806 
    113 H113       26.1513   32.3634    1.8885 H         1 UNK         0.0806 
    114 H114       27.0891   33.4200    0.8559 H         1 UNK         0.0806 
    115 H115       29.1801   33.0676    0.5477 H         1 UNK         0.3010 
    116 H116       31.1645   34.9462    0.7264 H         1 UNK         0.0829 
    117 H117       30.3914   33.9653   -1.3949 H         1 UNK         0.0813 
    118 H118       32.1333   33.7821   -1.2785 H         1 UNK         0.0813 
    119 H119       31.0901   32.4004   -0.9764 H         1 UNK         0.0813 
    120 H120       32.5867   35.0699    2.3317 H         1 UNK         0.3038 
    121 H121       34.2241   34.7369    3.7681 H         1 UNK         0.0769 
    122 H122       36.2354   33.4995    3.0341 H         1 UNK         0.0811 
    123 H123       35.5868   34.4261    1.6933 H         1 UNK         0.0811 
    124 H124       35.3221   32.6861    1.7733 H         1 UNK         0.0811 
    125 H125       31.7969   33.1428    4.0996 H         1 UNK         0.3204 
    126 H126       30.8512   31.5630    5.2884 H         1 UNK         0.0748 
    127 H127       31.8685   30.7496    7.3830 H         1 UNK         0.0771 
    128 H128       33.4534   31.3202    6.8844 H         1 UNK         0.0771 
    129 H129       32.1591   32.4728    7.2090 H         1 UNK         0.0771 
    130 H130       31.6877   30.8147    2.8509 H         1 UNK         0.2980 
    131 H131       31.9745   29.1740    1.4649 H         1 UNK         0.0545 
    132 H132       33.9051   30.7071    1.4001 H         1 UNK         0.3459 
    133 H133       35.4793   29.9392    1.5431 H         1 UNK         0.3459 
    134 H134       32.1693   27.0837    3.6850 H         1 UNK         0.0616 
    135 H135       30.6702   27.6762    3.0274 H         1 UNK         0.0616 
    136 H136       33.5898   25.5154    2.8050 H         1 UNK         0.0634 
    137 H137       33.6365   24.8400    1.2024 H         1 UNK         0.0634 
@<TRIPOS>BOND
     1    1    2 1    
     2    1   72 1    
     3    1   73 1    
     4    1   74 1    
     5    2    3 2    
     6    2    4 am   BACKBONE|DICT|INTERRES
     7    4    5 1    
     8    4   75 1    
     9    5    6 1    
    10    5   35 1    
    11    5   76 1    
    12    6    7 1    
    13    6   77 1    
    14    6   78 1    
    15    7    8 1    
    16    8    9 1    
    17    8   79 1    
    18    8   80 1    
    19    9   10 ar   
    20    9   14 ar   
    21   10   11 ar   
    22   10   81 1    
    23   11   12 ar   
    24   11   71 1    
    25   12   13 ar   
    26   12   82 1    
    27   13   14 ar   
    28   13   15 1    
    29   14   83 1    
    30   15   16 1    
    31   15   84 1    
    32   15   85 1    
    33   16   17 1    
    34   17   18 1    
    35   17   86 1    
    36   17   87 1    
    37   18   19 1    
    38   18   37 1    
    39   18   88 1    
    40   19   20 am   BACKBONE|DICT|INTERRES
    41   19   89 1    
    42   20   21 2    
    43   20   22 1    
    44   22   23 1    
    45   22   24 1    
    46   22   90 1    
    47   23   91 1    
    48   23   92 1    
    49   23   93 1    
    50   24   25 am   BACKBONE|DICT|INTERRES
    51   24   94 1    
    52   25   26 2    
    53   25   27 1    
    54   27   28 1    
    55   27   29 1    
    56   27   95 1    
    57   28   96 1    
    58   28   97 1    
    59   28   98 1    
    60   29   30 am   BACKBONE|DICT|INTERRES
    61   29   99 1    
    62   30   31 2    
    63   30   32 1    
    64   32   33 1    
    65   32   34 1    
    66   32  100 1    
    67   33  101 1    
    68   33  102 1    
    69   33  103 1    
    70   34   35 am   BACKBONE|DICT|INTERRES
    71   34  104 1    
    72   35   36 2    
    73   37   38 2    
    74   37   39 am   BACKBONE|DICT|INTERRES
    75   39   40 1    
    76   39  105 1    
    77   40   41 1    
    78   40   42 1    
    79   40  106 1    
    80   41  107 1    
    81   41  108 1    
    82   41  109 1    
    83   42   43 2    
    84   42   44 am   BACKBONE|DICT|INTERRES
    85   44   45 1    
    86   44  110 1    
    87   45   46 1    
    88   45   47 1    
    89   45  111 1    
    90   46  112 1    
    91   46  113 1    
    92   46  114 1    
    93   47   48 2    
    94   47   49 am   BACKBONE|DICT|INTERRES
    95   49   50 1    
    96   49  115 1    
    97   50   51 1    
    98   50   52 1    
    99   50  116 1    
   100   51  117 1    
   101   51  118 1    
   102   51  119 1    
   103   52   53 2    
   104   52   54 am   BACKBONE|DICT|INTERRES
   105   54   55 1    
   106   54  120 1    
   107   55   56 1    
   108   55   57 1    
   109   55  121 1    
   110   56  122 1    
   111   56  123 1    
   112   56  124 1    
   113   57   58 2    
   114   57   59 am   BACKBONE|DICT|INTERRES
   115   59   60 1    
   116   59  125 1    
   117   60   61 1    
   118   60   62 1    
   119   60  126 1    
   120   61  127 1    
   121   61  128 1    
   122   61  129 1    
   123   62   63 2    
   124   62   64 am   BACKBONE|DICT|INTERRES
   125   64   65 1    
   126   64  130 1    
   127   65   66 1    
   128   65   69 1    
   129   65  131 1    
   130   66   67 am   BACKBONE|DICT|INTERRES
   131   66   68 2    
   132   67  132 1    
   133   67  133 1    
   134   69   70 1    
   135   69  134 1    
   136   69  135 1    
   137   70   71 1    
   138   71  136 1    
   139   71  137 1    
@<TRIPOS>SUBSTRUCTURE
     1 UNK         1 GROUP             0       ****    0 ROOT    
