@<TRIPOS>MOLECULE
3R136
137   139    1
SMALL
USER_CHARGES


@<TRIPOS>ATOM
      1 CA         27.3548   23.6459    1.7526 C.3       0 UNK        -0.1979 
      2 C          28.0784   22.8781    0.6595 C.2       0 UNK         0.4864 
      3 O          27.4378   22.1548   -0.1049 O.2       0 UNK        -0.5359 
      4 N          29.4047   23.0275    0.5820 N.am      1 UNK        -0.4318 
      5 CA         30.2636   22.3805   -0.4140 C.3       1 UNK         0.0824 
      6 C6         31.6556   22.0365    0.1701 C.3       12 UNK        -0.0944 
      7 S7         31.5459   20.7946    1.5011 S.3       12 UNK        -0.2672 
      8 C8         32.7014   21.4590    2.7476 C.3       12 UNK         0.0333 
      9 C9         32.0914   22.4988    3.6858 C.ar      12 UNK        -0.0807 
     10 C10        32.8220   23.6450    4.0196 C.ar      12 UNK        -0.0894 
     11 C11        32.3297   24.5572    4.9590 C.ar      12 UNK        -0.0804 
     12 C12        31.0970   24.3133    5.5701 C.ar      12 UNK        -0.0824 
     13 C13        30.3502   23.1772    5.2462 C.ar      12 UNK        -0.0762 
     14 C14        30.8513   22.2774    4.2987 C.ar      12 UNK        -0.0782 
     15 C15        29.0439   22.8795    5.9746 C.3       12 UNK         0.0230 
     16 S16        27.6358   23.8493    5.3432 S.3       12 UNK        -0.2608 
     17 C17        27.8442   25.4513    6.1957 C.3       12 UNK        -0.0989 
     18 CA         28.2307   26.5860    5.2152 C.3       5 UNK         0.0716 
     19 N          27.1726   26.8044    4.2180 N.am      5 UNK        -0.4135 
     20 C          27.1341   27.7298    3.2512 C.2       4 UNK         0.5031 
     21 O          27.8514   28.7328    3.2086 O.2       4 UNK        -0.5229 
     22 CA         26.0974   27.4852    2.1382 C.3       4 UNK         0.0329 
     23 CB         24.7344   28.1028    2.4839 C.3       4 UNK        -0.2001 
     24 N          26.5647   27.9972    0.8466 N.am      4 UNK        -0.4303 
     25 C          27.6361   27.5107    0.2061 C.2       3 UNK         0.5044 
     26 O          28.2559   26.5124    0.5829 O.2       3 UNK        -0.5152 
     27 CA         28.1051   28.2798   -1.0437 C.3       3 UNK         0.0319 
     28 CB         28.6755   29.6536   -0.6479 C.3       3 UNK        -0.2001 
     29 N          29.1324   27.5065   -1.7497 N.am      3 UNK        -0.4354 
     30 C          28.8506   26.4232   -2.4880 C.2       2 UNK         0.4964 
     31 O          27.7171   26.1363   -2.8769 O.2       2 UNK        -0.5047 
     32 CA         29.9925   25.4425   -2.7650 C.3       2 UNK         0.0288 
     33 CB         31.3649   26.1007   -3.0031 C.3       2 UNK        -0.2113 
     34 N          30.0464   24.5211   -1.6324 N.am      2 UNK        -0.4145 
     35 C          30.3890   23.2280   -1.6992 C.2       1 UNK         0.5006 
     36 O          30.7826   22.6854   -2.7337 O.2       1 UNK        -0.5103 
     37 C          28.7199   27.8247    5.9986 C.2       5 UNK         0.5055 
     38 O          29.8723   27.8232    6.4340 O.2       5 UNK        -0.5220 
     39 N          27.8618   28.8363    6.1814 N.am      6 UNK        -0.4450 
     40 CA         28.1876   30.0877    6.8709 C.3       6 UNK         0.0367 
     41 CB         27.5558   30.0617    8.2758 C.3       6 UNK        -0.1929 
     42 C          27.7570   31.3325    6.0727 C.2       6 UNK         0.5070 
     43 O          27.7407   32.4249    6.6420 O.2       6 UNK        -0.5237 
     44 N          27.3988   31.1749    4.7892 N.am      7 UNK        -0.4739 
     45 CA         26.9109   32.2750    3.9481 C.3       7 UNK         0.0276 
     46 CB         25.9599   31.7210    2.8780 C.3       7 UNK        -0.1927 
     47 C          28.0361   33.0854    3.2874 C.2       7 UNK         0.5013 
     48 O          27.8189   34.2544    2.9647 O.2       7 UNK        -0.5193 
     49 N          29.2025   32.4649    3.0835 N.am      8 UNK        -0.4253 
     50 CA         30.3719   33.0575    2.4418 C.3       8 UNK         0.0242 
     51 CB         30.1963   33.0331    0.9094 C.3       8 UNK        -0.2000 
     52 C          31.6182   32.2715    2.8571 C.2       8 UNK         0.4948 
     53 O          31.4959   31.1597    3.3768 O.2       8 UNK        -0.5275 
     54 N          32.7966   32.8469    2.5793 N.am      9 UNK        -0.4246 
     55 CA         34.1008   32.2004    2.7674 C.3       9 UNK         0.0261 
     56 CB         35.2201   33.2393    2.5927 C.3       9 UNK        -0.1959 
     57 C          34.3193   31.0051    1.8215 C.2       9 UNK         0.5033 
     58 O          35.0067   30.0540    2.1946 O.2       9 UNK        -0.5390 
     59 N          33.6958   31.0461    0.6351 N.am      10 UNK        -0.4215 
     60 CA         33.6378   29.9534   -0.3390 C.3       10 UNK         0.0240 
     61 CB         33.3990   30.5468   -1.7406 C.3       10 UNK        -0.1982 
     62 C          32.5681   28.9134    0.0512 C.2       10 UNK         0.4970 
     63 O          31.6846   28.6060   -0.7485 O.2       10 UNK        -0.4916 
     64 N          32.6560   28.4061    1.2841 N.am      11 UNK        -0.4279 
     65 CA         31.7348   27.4283    1.8796 C.3       11 UNK         0.1003 
     66 C          31.8002   25.9981    1.2700 C.2       11 UNK         0.5709 
     67 N          32.7949   25.6703    0.4521 N.am      11 UNK        -0.7358 
     68 O          30.9298   25.1761    1.5364 O.2       11 UNK        -0.4999 
     69 C69        31.8789   27.4123    3.4225 C.3       12 UNK        -0.0954 
     70 S70        33.5394   26.8959    3.9861 S.3       12 UNK        -0.2268 
     71 C71        33.1472   25.7779    5.3694 C.3       12 UNK         0.0203 
     72 H72        28.0278   24.3193    2.2848 H         1 UNK         0.0888 
     73 H73        26.5525   24.2395    1.3174 H         1 UNK         0.0888 
     74 H74        26.9198   22.9540    2.4729 H         1 UNK         0.0888 
     75 H75        29.8801   23.6865    1.1977 H         1 UNK         0.3017 
     76 H76        29.7994   21.4403   -0.7199 H         1 UNK         0.0873 
     77 H77        32.1465   22.9322    0.5494 H         1 UNK         0.0745 
     78 H78        32.3111   21.6292   -0.6022 H         1 UNK         0.0745 
     79 H79        33.5814   21.8578    2.2404 H         1 UNK         0.0705 
     80 H80        33.0561   20.6271    3.3572 H         1 UNK         0.0705 
     81 H81        33.7882   23.8208    3.5667 H         1 UNK         0.1334 
     82 H82        30.7313   25.0020    6.3178 H         1 UNK         0.1417 
     83 H83        30.2922   21.3822    4.0630 H         1 UNK         0.1562 
     84 H84        29.1652   23.0501    7.0452 H         1 UNK         0.0748 
     85 H85        28.7972   21.8216    5.8726 H         1 UNK         0.0748 
     86 H86        28.5833   25.3415    6.9909 H         1 UNK         0.0940 
     87 H87        26.9085   25.6933    6.7033 H         1 UNK         0.0940 
     88 H88        29.0917   26.2423    4.6419 H         1 UNK         0.0703 
     89 H89        26.5028   26.0505    4.1653 H         1 UNK         0.3081 
     90 H90        25.9587   26.4079    2.0348 H         1 UNK         0.0719 
     91 H91        24.7735   29.1888    2.5079 H         1 UNK         0.0809 
     92 H92        23.9771   27.8158    1.7541 H         1 UNK         0.0809 
     93 H93        24.3831   27.7658    3.4602 H         1 UNK         0.0809 
     94 H94        26.1197   28.8322    0.4962 H         1 UNK         0.2990 
     95 H95        27.2509   28.4307   -1.7070 H         1 UNK         0.0690 
     96 H96        29.1540   30.1481   -1.4934 H         1 UNK         0.0788 
     97 H97        29.4120   29.5683    0.1522 H         1 UNK         0.0788 
     98 H98        27.8892   30.3173   -0.2871 H         1 UNK         0.0788 
     99 H99        30.0907   27.6756   -1.4562 H         1 UNK         0.2993 
    100 H100       29.7172   24.8944   -3.6690 H         1 UNK         0.0949 
    101 H101       32.0659   25.3862   -3.4347 H         1 UNK         0.0767 
    102 H102       31.2900   26.9399   -3.6959 H         1 UNK         0.0767 
    103 H103       31.8078   26.4664   -2.0793 H         1 UNK         0.0767 
    104 H104       29.6996   24.8845   -0.7512 H         1 UNK         0.3013 
    105 H105       26.9325   28.7622    5.7921 H         1 UNK         0.3121 
    106 H106       29.2693   30.1809    6.9886 H         1 UNK         0.0774 
    107 H107       27.8222   30.9523    8.8465 H         1 UNK         0.0815 
    108 H108       26.4673   30.0179    8.2261 H         1 UNK         0.0815 
    109 H109       27.9007   29.2006    8.8484 H         1 UNK         0.0815 
    110 H110       27.5202   30.2707    4.3390 H         1 UNK         0.2987 
    111 H111       26.3382   32.9709    4.5658 H         1 UNK         0.0949 
    112 H112       26.4448   30.9661    2.2580 H         1 UNK         0.0806 
    113 H113       25.0766   31.2800    3.3382 H         1 UNK         0.0806 
    114 H114       25.6110   32.5134    2.2140 H         1 UNK         0.0806 
    115 H115       29.3383   31.5177    3.4170 H         1 UNK         0.3010 
    116 H116       30.4858   34.0877    2.7867 H         1 UNK         0.0829 
    117 H117       29.2994   33.5705    0.6009 H         1 UNK         0.0813 
    118 H118       31.0385   33.5068    0.4043 H         1 UNK         0.0813 
    119 H119       30.1187   32.0131    0.5312 H         1 UNK         0.0813 
    120 H120       32.8042   33.7717    2.1721 H         1 UNK         0.3038 
    121 H121       34.1429   31.8197    3.7903 H         1 UNK         0.0769 
    122 H122       36.1997   32.7860    2.7517 H         1 UNK         0.0811 
    123 H123       35.1224   34.0533    3.3113 H         1 UNK         0.0811 
    124 H124       35.2206   33.6717    1.5913 H         1 UNK         0.0811 
    125 H125       33.1350   31.8587    0.4280 H         1 UNK         0.3204 
    126 H126       34.6005   29.4380   -0.3538 H         1 UNK         0.0748 
    127 H127       33.3948   29.7640   -2.5005 H         1 UNK         0.0771 
    128 H128       32.4414   31.0658   -1.8024 H         1 UNK         0.0771 
    129 H129       34.1833   31.2538   -2.0116 H         1 UNK         0.0771 
    130 H130       33.4233   28.7076    1.8739 H         1 UNK         0.2980 
    131 H131       30.7252   27.7840    1.6634 H         1 UNK         0.0545 
    132 H132       32.8356   24.7458    0.0613 H         1 UNK         0.3459 
    133 H133       33.5189   26.3377    0.2452 H         1 UNK         0.3459 
    134 H134       31.1229   26.7621    3.8585 H         1 UNK         0.0616 
    135 H135       31.6764   28.4057    3.8258 H         1 UNK         0.0616 
    136 H136       32.6282   26.3535    6.1378 H         1 UNK         0.0634 
    137 H137       34.0814   25.4394    5.8189 H         1 UNK         0.0634 
@<TRIPOS>BOND
     1    1    2 1    
     2    1   72 1    
     3    1   73 1    
     4    1   74 1    
     5    2    3 2    
     6    2    4 am   BACKBONE|DICT|INTERRES
     7    4    5 1    
     8    4   75 1    
     9    5    6 1    
    10    5   35 1    
    11    5   76 1    
    12    6    7 1    
    13    6   77 1    
    14    6   78 1    
    15    7    8 1    
    16    8    9 1    
    17    8   79 1    
    18    8   80 1    
    19    9   10 ar   
    20    9   14 ar   
    21   10   11 ar   
    22   10   81 1    
    23   11   12 ar   
    24   11   71 1    
    25   12   13 ar   
    26   12   82 1    
    27   13   14 ar   
    28   13   15 1    
    29   14   83 1    
    30   15   16 1    
    31   15   84 1    
    32   15   85 1    
    33   16   17 1    
    34   17   18 1    
    35   17   86 1    
    36   17   87 1    
    37   18   19 1    
    38   18   37 1    
    39   18   88 1    
    40   19   20 am   BACKBONE|DICT|INTERRES
    41   19   89 1    
    42   20   21 2    
    43   20   22 1    
    44   22   23 1    
    45   22   24 1    
    46   22   90 1    
    47   23   91 1    
    48   23   92 1    
    49   23   93 1    
    50   24   25 am   BACKBONE|DICT|INTERRES
    51   24   94 1    
    52   25   26 2    
    53   25   27 1    
    54   27   28 1    
    55   27   29 1    
    56   27   95 1    
    57   28   96 1    
    58   28   97 1    
    59   28   98 1    
    60   29   30 am   BACKBONE|DICT|INTERRES
    61   29   99 1    
    62   30   31 2    
    63   30   32 1    
    64   32   33 1    
    65   32   34 1    
    66   32  100 1    
    67   33  101 1    
    68   33  102 1    
    69   33  103 1    
    70   34   35 am   BACKBONE|DICT|INTERRES
    71   34  104 1    
    72   35   36 2    
    73   37   38 2    
    74   37   39 am   BACKBONE|DICT|INTERRES
    75   39   40 1    
    76   39  105 1    
    77   40   41 1    
    78   40   42 1    
    79   40  106 1    
    80   41  107 1    
    81   41  108 1    
    82   41  109 1    
    83   42   43 2    
    84   42   44 am   BACKBONE|DICT|INTERRES
    85   44   45 1    
    86   44  110 1    
    87   45   46 1    
    88   45   47 1    
    89   45  111 1    
    90   46  112 1    
    91   46  113 1    
    92   46  114 1    
    93   47   48 2    
    94   47   49 am   BACKBONE|DICT|INTERRES
    95   49   50 1    
    96   49  115 1    
    97   50   51 1    
    98   50   52 1    
    99   50  116 1    
   100   51  117 1    
   101   51  118 1    
   102   51  119 1    
   103   52   53 2    
   104   52   54 am   BACKBONE|DICT|INTERRES
   105   54   55 1    
   106   54  120 1    
   107   55   56 1    
   108   55   57 1    
   109   55  121 1    
   110   56  122 1    
   111   56  123 1    
   112   56  124 1    
   113   57   58 2    
   114   57   59 am   BACKBONE|DICT|INTERRES
   115   59   60 1    
   116   59  125 1    
   117   60   61 1    
   118   60   62 1    
   119   60  126 1    
   120   61  127 1    
   121   61  128 1    
   122   61  129 1    
   123   62   63 2    
   124   62   64 am   BACKBONE|DICT|INTERRES
   125   64   65 1    
   126   64  130 1    
   127   65   66 1    
   128   65   69 1    
   129   65  131 1    
   130   66   67 am   BACKBONE|DICT|INTERRES
   131   66   68 2    
   132   67  132 1    
   133   67  133 1    
   134   69   70 1    
   135   69  134 1    
   136   69  135 1    
   137   70   71 1    
   138   71  136 1    
   139   71  137 1    
@<TRIPOS>SUBSTRUCTURE
     1 UNK         1 GROUP             0       ****    0 ROOT    
