@<TRIPOS>MOLECULE
3R136
137   139    1
SMALL
USER_CHARGES


@<TRIPOS>ATOM
      1 CA         28.2111   19.7099    0.9059 C.3       0 UNK        -0.1979 
      2 C          29.4296   20.1027    0.0836 C.2       0 UNK         0.4864 
      3 O          29.5046   19.7677   -1.0992 O.2       0 UNK        -0.5359 
      4 N          30.3834   20.8110    0.7031 N.am      1 UNK        -0.4318 
      5 CA         31.6065   21.3250    0.0719 C.3       1 UNK         0.0824 
      6 C6         32.6431   21.7841    1.1325 C.3       12 UNK        -0.0944 
      7 S7         32.0759   23.1810    2.1673 S.3       12 UNK        -0.2672 
      8 C8         31.5214   22.3425    3.6811 C.3       12 UNK         0.0333 
      9 C9         30.5036   23.2081    4.4034 C.ar      12 UNK        -0.0807 
     10 C10        30.9229   24.1528    5.3435 C.ar      12 UNK        -0.0894 
     11 C11        29.9967   24.9954    5.9705 C.ar      12 UNK        -0.0804 
     12 C12        28.6362   24.8355    5.6912 C.ar      12 UNK        -0.0824 
     13 C13        28.2026   23.8919    4.7544 C.ar      12 UNK        -0.0762 
     14 C14        29.1427   23.0852    4.1089 C.ar      12 UNK        -0.0782 
     15 C15        26.7213   23.7393    4.4361 C.3       12 UNK         0.0230 
     16 S16        26.1993   24.8385    3.0792 S.3       12 UNK        -0.2608 
     17 C17        26.1942   26.4610    3.9114 C.3       12 UNK        -0.0989 
     18 CA         27.4309   27.3242    3.5286 C.3       5 UNK         0.0716 
     19 N          27.4211   27.7274    2.1160 N.am      5 UNK        -0.4135 
     20 C          26.5733   28.5921    1.5390 C.2       4 UNK         0.5031 
     21 O          25.6857   29.2030    2.1360 O.2       4 UNK        -0.5229 
     22 CA         26.7410   28.8105    0.0269 C.3       4 UNK         0.0329 
     23 CB         27.9467   29.7166   -0.2602 C.3       4 UNK        -0.2001 
     24 N          26.8597   27.5625   -0.7322 N.am      4 UNK        -0.4303 
     25 C          25.8576   26.6873   -0.9092 C.2       3 UNK         0.5044 
     26 O          24.7393   26.8185   -0.4100 O.2       3 UNK        -0.5152 
     27 CA         26.1161   25.4850   -1.8370 C.3       3 UNK         0.0319 
     28 CB         25.4547   25.7166   -3.2062 C.3       3 UNK        -0.2001 
     29 N          27.5368   25.1864   -2.0418 N.am      3 UNK        -0.4354 
     30 C          28.2975   24.5335   -1.1561 C.2       2 UNK         0.4964 
     31 O          27.8915   24.1325   -0.0624 O.2       2 UNK        -0.5047 
     32 CA         29.7593   24.3007   -1.5521 C.3       2 UNK         0.0288 
     33 CB         30.6002   25.5699   -1.3267 C.3       2 UNK        -0.2113 
     34 N          30.2655   23.2154   -0.7253 N.am      2 UNK        -0.4145 
     35 C          31.3203   22.4309   -0.9710 C.2       1 UNK         0.5006 
     36 O          32.0454   22.5416   -1.9616 O.2       1 UNK        -0.5103 
     37 C          27.6436   28.5184    4.4904 C.2       5 UNK         0.5055 
     38 O          26.9831   28.5995    5.5287 O.2       5 UNK        -0.5220 
     39 N          28.5624   29.4263    4.1408 N.am      6 UNK        -0.4450 
     40 CA         28.8995   30.6099    4.9274 C.3       6 UNK         0.0367 
     41 CB         27.8758   31.7321    4.6756 C.3       6 UNK        -0.1929 
     42 C          30.3011   31.0577    4.5246 C.2       6 UNK         0.5070 
     43 O          30.5409   31.2475    3.3325 O.2       6 UNK        -0.5237 
     44 N          31.1945   31.2399    5.5055 N.am      7 UNK        -0.4739 
     45 CA         32.6254   31.5274    5.3152 C.3       7 UNK         0.0276 
     46 CB         33.3266   31.5075    6.6827 C.3       7 UNK        -0.1927 
     47 C          32.9500   32.8267    4.5558 C.2       7 UNK         0.5013 
     48 O          34.0507   32.9467    4.0172 O.2       7 UNK        -0.5193 
     49 N          31.9884   33.7568    4.4948 N.am      8 UNK        -0.4253 
     50 CA         32.0463   34.9638    3.6673 C.3       8 UNK         0.0242 
     51 CB         30.9294   35.9241    4.1089 C.3       8 UNK        -0.2000 
     52 C          31.9426   34.6793    2.1544 C.2       8 UNK         0.4948 
     53 O          32.3264   35.5427    1.3637 O.2       8 UNK        -0.5275 
     54 N          31.4209   33.5030    1.7791 N.am      9 UNK        -0.4246 
     55 CA         31.2267   33.0626    0.3999 C.3       9 UNK         0.0261 
     56 CB         29.7221   32.9029    0.1286 C.3       9 UNK        -0.1959 
     57 C          31.9954   31.7604    0.1354 C.2       9 UNK         0.5033 
     58 O          32.8881   31.7580   -0.7135 O.2       9 UNK        -0.5390 
     59 N          31.6582   30.6909    0.8685 N.am      10 UNK        -0.4215 
     60 CA         32.2905   29.3752    0.8083 C.3       10 UNK         0.0240 
     61 CB         32.0110   28.6720   -0.5346 C.3       10 UNK        -0.1982 
     62 C          31.7887   28.5164    1.9769 C.2       10 UNK         0.4970 
     63 O          30.5762   28.4044    2.1779 O.2       10 UNK        -0.4916 
     64 N          32.7373   27.9144    2.6966 N.am      11 UNK        -0.4279 
     65 CA         32.5576   26.9761    3.8076 C.3       11 UNK         0.1003 
     66 C          33.9631   26.3906    4.1017 C.2       11 UNK         0.5709 
     67 N          34.1631   25.0951    3.9082 N.am      11 UNK        -0.7358 
     68 O          34.8781   27.1127    4.4933 O.2       11 UNK        -0.4999 
     69 C69        31.8587   27.6325    5.0417 C.3       12 UNK        -0.0954 
     70 S70        32.0714   26.7965    6.6568 S.3       12 UNK        -0.2268 
     71 C71        30.4241   26.0729    6.9659 C.3       12 UNK         0.0203 
     72 H72        28.3045   20.0150    1.9480 H         1 UNK         0.0888 
     73 H73        28.0740   18.6291    0.8814 H         1 UNK         0.0888 
     74 H74        27.3164   20.1769    0.4948 H         1 UNK         0.0888 
     75 H75        30.2678   21.0520    1.6752 H         1 UNK         0.3017 
     76 H76        32.0530   20.4939   -0.4786 H         1 UNK         0.0873 
     77 H77        33.5703   22.0849    0.6409 H         1 UNK         0.0745 
     78 H78        32.9167   20.9455    1.7748 H         1 UNK         0.0745 
     79 H79        31.0827   21.3729    3.4440 H         1 UNK         0.0705 
     80 H80        32.3816   22.1423    4.3221 H         1 UNK         0.0705 
     81 H81        31.9761   24.2423    5.5684 H         1 UNK         0.1334 
     82 H82        27.9132   25.4614    6.1952 H         1 UNK         0.1417 
     83 H83        28.8115   22.3663    3.3727 H         1 UNK         0.1562 
     84 H84        26.1169   23.9293    5.3244 H         1 UNK         0.0748 
     85 H85        26.5107   22.7084    4.1472 H         1 UNK         0.0748 
     86 H86        26.1354   26.2936    4.9871 H         1 UNK         0.0940 
     87 H87        25.2699   26.9800    3.6532 H         1 UNK         0.0940 
     88 H88        28.3229   26.7079    3.6467 H         1 UNK         0.0703 
     89 H89        28.1305   27.2982    1.5398 H         1 UNK         0.3081 
     90 H90        25.8475   29.3268   -0.3317 H         1 UNK         0.0719 
     91 H91        27.8022   30.6848    0.2170 H         1 UNK         0.0809 
     92 H92        28.8764   29.2979    0.1244 H         1 UNK         0.0809 
     93 H93        28.0705   29.8982   -1.3279 H         1 UNK         0.0809 
     94 H94        27.7405   27.3799   -1.1885 H         1 UNK         0.2990 
     95 H95        25.6411   24.6152   -1.3771 H         1 UNK         0.0690 
     96 H96        25.5603   24.8438   -3.8510 H         1 UNK         0.0788 
     97 H97        25.8868   26.5734   -3.7248 H         1 UNK         0.0788 
     98 H98        24.3861   25.9075   -3.0968 H         1 UNK         0.0788 
     99 H99        27.9428   25.4828   -2.9184 H         1 UNK         0.2993 
    100 H100       29.8006   24.0012   -2.6016 H         1 UNK         0.0949 
    101 H101       30.5666   25.8920   -0.2845 H         1 UNK         0.0767 
    102 H102       31.6452   25.4056   -1.5900 H         1 UNK         0.0767 
    103 H103       30.2406   26.3960   -1.9408 H         1 UNK         0.0767 
    104 H104       29.6997   23.0384    0.0960 H         1 UNK         0.3013 
    105 H105       29.1336   29.2710    3.3127 H         1 UNK         0.3121 
    106 H106       28.8994   30.3510    5.9885 H         1 UNK         0.0774 
    107 H107       27.8291   32.0037    3.6200 H         1 UNK         0.0815 
    108 H108       26.8744   31.4340    4.9863 H         1 UNK         0.0815 
    109 H109       28.1340   32.6318    5.2353 H         1 UNK         0.0815 
    110 H110       30.8974   31.0905    6.4597 H         1 UNK         0.2987 
    111 H111       33.0423   30.7207    4.7094 H         1 UNK         0.0949 
    112 H112       33.2152   30.5392    7.1715 H         1 UNK         0.0806 
    113 H113       34.3969   31.6914    6.5775 H         1 UNK         0.0806 
    114 H114       32.9287   32.2719    7.3513 H         1 UNK         0.0806 
    115 H115       31.1212   33.5716    4.9772 H         1 UNK         0.3010 
    116 H116       33.0081   35.4511    3.8423 H         1 UNK         0.0829 
    117 H117       30.9625   36.8514    3.5350 H         1 UNK         0.0813 
    118 H118       31.0289   36.1934    5.1606 H         1 UNK         0.0813 
    119 H119       29.9403   35.4873    3.9643 H         1 UNK         0.0813 
    120 H120       31.1612   32.8315    2.4970 H         1 UNK         0.3038 
    121 H121       31.6133   33.8074   -0.2991 H         1 UNK         0.0769 
    122 H122       29.2232   33.8720    0.1170 H         1 UNK         0.0811 
    123 H123       29.2413   32.2965    0.8958 H         1 UNK         0.0811 
    124 H124       29.5399   32.4316   -0.8382 H         1 UNK         0.0811 
    125 H125       30.9848   30.8008    1.6270 H         1 UNK         0.3204 
    126 H126       33.3680   29.5201    0.9102 H         1 UNK         0.0748 
    127 H127       32.4661   27.6813   -0.5534 H         1 UNK         0.0771 
    128 H128       30.9431   28.5477   -0.7104 H         1 UNK         0.0771 
    129 H129       32.4245   29.2249   -1.3775 H         1 UNK         0.0771 
    130 H130       33.7066   28.0684    2.4529 H         1 UNK         0.2980 
    131 H131       31.9172   26.1671    3.4510 H         1 UNK         0.0545 
    132 H132       35.0751   24.7097    4.0949 H         1 UNK         0.3459 
    133 H133       33.4365   24.5063    3.5265 H         1 UNK         0.3459 
    134 H134       30.7946   27.7552    4.8411 H         1 UNK         0.0616 
    135 H135       32.2519   28.6371    5.1812 H         1 UNK         0.0616 
    136 H136       29.6947   26.8848    6.9797 H         1 UNK         0.0634 
    137 H137       30.4219   25.6372    7.9655 H         1 UNK         0.0634 
@<TRIPOS>BOND
     1    1    2 1    
     2    1   72 1    
     3    1   73 1    
     4    1   74 1    
     5    2    3 2    
     6    2    4 am   BACKBONE|DICT|INTERRES
     7    4    5 1    
     8    4   75 1    
     9    5    6 1    
    10    5   35 1    
    11    5   76 1    
    12    6    7 1    
    13    6   77 1    
    14    6   78 1    
    15    7    8 1    
    16    8    9 1    
    17    8   79 1    
    18    8   80 1    
    19    9   10 ar   
    20    9   14 ar   
    21   10   11 ar   
    22   10   81 1    
    23   11   12 ar   
    24   11   71 1    
    25   12   13 ar   
    26   12   82 1    
    27   13   14 ar   
    28   13   15 1    
    29   14   83 1    
    30   15   16 1    
    31   15   84 1    
    32   15   85 1    
    33   16   17 1    
    34   17   18 1    
    35   17   86 1    
    36   17   87 1    
    37   18   19 1    
    38   18   37 1    
    39   18   88 1    
    40   19   20 am   BACKBONE|DICT|INTERRES
    41   19   89 1    
    42   20   21 2    
    43   20   22 1    
    44   22   23 1    
    45   22   24 1    
    46   22   90 1    
    47   23   91 1    
    48   23   92 1    
    49   23   93 1    
    50   24   25 am   BACKBONE|DICT|INTERRES
    51   24   94 1    
    52   25   26 2    
    53   25   27 1    
    54   27   28 1    
    55   27   29 1    
    56   27   95 1    
    57   28   96 1    
    58   28   97 1    
    59   28   98 1    
    60   29   30 am   BACKBONE|DICT|INTERRES
    61   29   99 1    
    62   30   31 2    
    63   30   32 1    
    64   32   33 1    
    65   32   34 1    
    66   32  100 1    
    67   33  101 1    
    68   33  102 1    
    69   33  103 1    
    70   34   35 am   BACKBONE|DICT|INTERRES
    71   34  104 1    
    72   35   36 2    
    73   37   38 2    
    74   37   39 am   BACKBONE|DICT|INTERRES
    75   39   40 1    
    76   39  105 1    
    77   40   41 1    
    78   40   42 1    
    79   40  106 1    
    80   41  107 1    
    81   41  108 1    
    82   41  109 1    
    83   42   43 2    
    84   42   44 am   BACKBONE|DICT|INTERRES
    85   44   45 1    
    86   44  110 1    
    87   45   46 1    
    88   45   47 1    
    89   45  111 1    
    90   46  112 1    
    91   46  113 1    
    92   46  114 1    
    93   47   48 2    
    94   47   49 am   BACKBONE|DICT|INTERRES
    95   49   50 1    
    96   49  115 1    
    97   50   51 1    
    98   50   52 1    
    99   50  116 1    
   100   51  117 1    
   101   51  118 1    
   102   51  119 1    
   103   52   53 2    
   104   52   54 am   BACKBONE|DICT|INTERRES
   105   54   55 1    
   106   54  120 1    
   107   55   56 1    
   108   55   57 1    
   109   55  121 1    
   110   56  122 1    
   111   56  123 1    
   112   56  124 1    
   113   57   58 2    
   114   57   59 am   BACKBONE|DICT|INTERRES
   115   59   60 1    
   116   59  125 1    
   117   60   61 1    
   118   60   62 1    
   119   60  126 1    
   120   61  127 1    
   121   61  128 1    
   122   61  129 1    
   123   62   63 2    
   124   62   64 am   BACKBONE|DICT|INTERRES
   125   64   65 1    
   126   64  130 1    
   127   65   66 1    
   128   65   69 1    
   129   65  131 1    
   130   66   67 am   BACKBONE|DICT|INTERRES
   131   66   68 2    
   132   67  132 1    
   133   67  133 1    
   134   69   70 1    
   135   69  134 1    
   136   69  135 1    
   137   70   71 1    
   138   71  136 1    
   139   71  137 1    
@<TRIPOS>SUBSTRUCTURE
     1 UNK         1 GROUP             0       ****    0 ROOT    
