@<TRIPOS>MOLECULE
3R136
137   139    1
SMALL
USER_CHARGES


@<TRIPOS>ATOM
      1 CA         31.3149   26.8272   -0.4004 C.3       0 UNK        -0.1979 
      2 C          30.2835   25.7350   -0.1787 C.2       0 UNK         0.4864 
      3 O          29.2515   25.9836    0.4468 O.2       0 UNK        -0.5359 
      4 N          30.5563   24.5370   -0.7143 N.am      1 UNK        -0.4318 
      5 CA         29.6956   23.3488   -0.6425 C.3       1 UNK         0.0824 
      6 C6         30.4890   22.0701   -1.0251 C.3       12 UNK        -0.0944 
      7 S7         29.9428   20.6053   -0.0872 S.3       12 UNK        -0.2672 
      8 C8         31.2922   20.4211    1.1208 C.3       12 UNK         0.0333 
      9 C9         31.2867   21.5334    2.1602 C.ar      12 UNK        -0.0807 
     10 C10        32.1498   22.6277    2.0355 C.ar      12 UNK        -0.0894 
     11 C11        32.1742   23.6346    3.0065 C.ar      12 UNK        -0.0804 
     12 C12        31.3390   23.5163    4.1227 C.ar      12 UNK        -0.0824 
     13 C13        30.4516   22.4451    4.2471 C.ar      12 UNK        -0.0762 
     14 C14        30.4300   21.4548    3.2619 C.ar      12 UNK        -0.0782 
     15 C15        29.5276   22.3512    5.4528 C.3       12 UNK         0.0230 
     16 S16        27.9536   23.2250    5.1721 S.3       12 UNK        -0.2608 
     17 C17        28.4471   24.9764    5.3401 C.3       12 UNK        -0.0989 
     18 CA         28.4271   25.7340    3.9824 C.3       5 UNK         0.0716 
     19 N          27.0930   25.7713    3.3677 N.am      5 UNK        -0.4135 
     20 C          26.0022   26.4055    3.8251 C.2       4 UNK         0.5031 
     21 O          25.9680   27.0475    4.8766 O.2       4 UNK        -0.5229 
     22 CA         24.7388   26.3257    2.9393 C.3       4 UNK         0.0329 
     23 CB         23.5244   27.0347    3.5692 C.3       4 UNK        -0.2001 
     24 N          24.9674   26.8818    1.6013 N.am      4 UNK        -0.4303 
     25 C          25.6594   26.2727    0.6315 C.2       3 UNK         0.5044 
     26 O          26.1350   25.1417    0.7621 O.2       3 UNK        -0.5152 
     27 CA         25.8764   27.0654   -0.6685 C.3       3 UNK         0.0319 
     28 CB         26.5957   28.3998   -0.4013 C.3       3 UNK        -0.2001 
     29 N          26.7070   26.2785   -1.5742 N.am      3 UNK        -0.4354 
     30 C          26.2750   25.6028   -2.6457 C.2       2 UNK         0.4964 
     31 O          25.1252   25.6675   -3.0827 O.2       2 UNK        -0.5047 
     32 CA         27.2991   24.6995   -3.3598 C.3       2 UNK         0.0288 
     33 CB         27.8095   25.3741   -4.6440 C.3       2 UNK        -0.2113 
     34 N          28.4463   24.3530   -2.5151 N.am      2 UNK        -0.4145 
     35 C          28.4113   23.4823   -1.4937 C.2       1 UNK         0.5006 
     36 O          27.4229   22.8000   -1.2200 O.2       1 UNK        -0.5103 
     37 C          29.0143   27.1592    4.0840 C.2       5 UNK         0.5055 
     38 O          29.3989   27.5979    5.1723 O.2       5 UNK        -0.5220 
     39 N          29.0354   27.8747    2.9510 N.am      6 UNK        -0.4450 
     40 CA         29.3684   29.2943    2.8957 C.3       6 UNK         0.0367 
     41 CB         28.0770   30.1306    2.8536 C.3       6 UNK        -0.1929 
     42 C          30.2943   29.5845    1.7146 C.2       6 UNK         0.5070 
     43 O          29.8227   29.8963    0.6201 O.2       6 UNK        -0.5237 
     44 N          31.6074   29.4973    1.9597 N.am      7 UNK        -0.4739 
     45 CA         32.6690   29.9178    1.0420 C.3       7 UNK         0.0276 
     46 CB         34.0010   29.2910    1.4929 C.3       7 UNK        -0.1927 
     47 C          32.7402   31.4539    0.9683 C.2       7 UNK         0.5013 
     48 O          33.6162   32.0632    1.5864 O.2       7 UNK        -0.5193 
     49 N          31.7662   32.0473    0.2643 N.am      8 UNK        -0.4253 
     50 CA         31.4850   33.4794    0.0968 C.3       8 UNK         0.0242 
     51 CB         32.6601   34.2287   -0.5643 C.3       8 UNK        -0.2000 
     52 C          31.0299   34.1589    1.3998 C.2       8 UNK         0.4948 
     53 O          29.9171   34.6841    1.4478 O.2       8 UNK        -0.5275 
     54 N          31.8857   34.1207    2.4268 N.am      9 UNK        -0.4246 
     55 CA         31.5976   34.5833    3.7813 C.3       9 UNK         0.0261 
     56 CB         32.8596   35.2197    4.3931 C.3       9 UNK        -0.1959 
     57 C          31.0742   33.4128    4.6246 C.2       9 UNK         0.5033 
     58 O          29.9007   33.4091    4.9977 O.2       9 UNK        -0.5390 
     59 N          31.9476   32.4358    4.8943 N.am      10 UNK        -0.4215 
     60 CA         31.6826   31.2406    5.6891 C.3       10 UNK         0.0240 
     61 CB         31.6333   31.5925    7.1886 C.3       10 UNK        -0.1982 
     62 C          32.8015   30.2317    5.4122 C.2       10 UNK         0.4970 
     63 O          33.9260   30.6491    5.1261 O.2       10 UNK        -0.4916 
     64 N          32.4916   28.9353    5.5324 N.am      11 UNK        -0.4279 
     65 CA         33.4914   27.8504    5.5079 C.3       11 UNK         0.1003 
     66 C          34.3228   27.7231    6.8200 C.2       11 UNK         0.5709 
     67 N          33.9512   28.3737    7.9167 N.am      11 UNK        -0.7358 
     68 O          35.3342   27.0260    6.8385 O.2       11 UNK        -0.4999 
     69 C69        32.8449   26.4938    5.1263 C.3       12 UNK        -0.0954 
     70 S70        32.4134   26.4218    3.3554 S.3       12 UNK        -0.2268 
     71 C71        33.1251   24.8202    2.8388 C.3       12 UNK         0.0203 
     72 H72        30.8317   27.7249   -0.7847 H         1 UNK         0.0888 
     73 H73        31.8005   27.0716    0.5416 H         1 UNK         0.0888 
     74 H74        32.0854   26.5280   -1.1104 H         1 UNK         0.0888 
     75 H75        31.4254   24.4131   -1.2138 H         1 UNK         0.3017 
     76 H76        29.3757   23.2682    0.3996 H         1 UNK         0.0873 
     77 H77        31.5552   22.2075   -0.8425 H         1 UNK         0.0745 
     78 H78        30.4153   21.8522   -2.0928 H         1 UNK         0.0745 
     79 H79        32.2501   20.3821    0.5998 H         1 UNK         0.0705 
     80 H80        31.1836   19.4574    1.6207 H         1 UNK         0.0705 
     81 H81        32.8098   22.6926    1.1816 H         1 UNK         0.1334 
     82 H82        31.3660   24.2651    4.8968 H         1 UNK         0.1417 
     83 H83        29.7517   20.6172    3.3551 H         1 UNK         0.1562 
     84 H84        30.0184   22.7448    6.3443 H         1 UNK         0.0748 
     85 H85        29.3096   21.3043    5.6694 H         1 UNK         0.0748 
     86 H86        29.4334   25.0305    5.8012 H         1 UNK         0.0940 
     87 H87        27.7728   25.4526    6.0536 H         1 UNK         0.0940 
     88 H88        29.0714   25.1940    3.2864 H         1 UNK         0.0703 
     89 H89        27.0082   25.3104    2.4649 H         1 UNK         0.3081 
     90 H90        24.4854   25.2678    2.8403 H         1 UNK         0.0719 
     91 H91        23.2979   26.6211    4.5529 H         1 UNK         0.0809 
     92 H92        23.7011   28.1034    3.6973 H         1 UNK         0.0809 
     93 H93        22.6311   26.9125    2.9564 H         1 UNK         0.0809 
     94 H94        24.6207   27.8163    1.4386 H         1 UNK         0.2990 
     95 H95        24.9003   27.2677   -1.1140 H         1 UNK         0.0690 
     96 H96        27.5447   28.2497    0.1154 H         1 UNK         0.0788 
     97 H97        25.9874   29.0687    0.2077 H         1 UNK         0.0788 
     98 H98        26.8087   28.9259   -1.3320 H         1 UNK         0.0788 
     99 H99        27.6374   26.0808   -1.2287 H         1 UNK         0.2993 
    100 H100       26.7829   23.7773   -3.6365 H         1 UNK         0.0949 
    101 H101       28.3388   26.3036   -4.4297 H         1 UNK         0.0767 
    102 H102       28.4858   24.7199   -5.1947 H         1 UNK         0.0767 
    103 H103       26.9818   25.6173   -5.3120 H         1 UNK         0.0767 
    104 H104       29.3051   24.8554   -2.6853 H         1 UNK         0.3013 
    105 H105       28.8168   27.4191    2.0703 H         1 UNK         0.3121 
    106 H106       29.9098   29.5842    3.7935 H         1 UNK         0.0774 
    107 H107       28.3056   31.1964    2.8079 H         1 UNK         0.0815 
    108 H108       27.4640   29.8904    1.9861 H         1 UNK         0.0815 
    109 H109       27.4717   29.9661    3.7453 H         1 UNK         0.0815 
    110 H110       31.9103   29.1781    2.8686 H         1 UNK         0.2987 
    111 H111       32.4464   29.5477    0.0391 H         1 UNK         0.0949 
    112 H112       34.8201   29.6115    0.8480 H         1 UNK         0.0806 
    113 H113       34.2602   29.5761    2.5132 H         1 UNK         0.0806 
    114 H114       33.9647   28.2029    1.4477 H         1 UNK         0.0806 
    115 H115       31.0424   31.4293   -0.0905 H         1 UNK         0.3010 
    116 H116       30.6411   33.5323   -0.5935 H         1 UNK         0.0829 
    117 H117       32.9220   33.7830   -1.5240 H         1 UNK         0.0813 
    118 H118       32.3973   35.2704   -0.7527 H         1 UNK         0.0813 
    119 H119       33.5557   34.2306    0.0576 H         1 UNK         0.0813 
    120 H120       32.7421   33.5903    2.2838 H         1 UNK         0.3038 
    121 H121       30.8198   35.3501    3.7550 H         1 UNK         0.0769 
    122 H122       33.1475   36.1177    3.8462 H         1 UNK         0.0811 
    123 H123       32.6847   35.5157    5.4285 H         1 UNK         0.0811 
    124 H124       33.7140   34.5418    4.3848 H         1 UNK         0.0811 
    125 H125       32.8917   32.4813    4.5283 H         1 UNK         0.3204 
    126 H126       30.7231   30.8182    5.3933 H         1 UNK         0.0748 
    127 H127       30.8399   32.3077    7.4064 H         1 UNK         0.0771 
    128 H128       31.4374   30.7069    7.7941 H         1 UNK         0.0771 
    129 H129       32.5744   32.0246    7.5319 H         1 UNK         0.0771 
    130 H130       31.5468   28.6592    5.7669 H         1 UNK         0.2980 
    131 H131       34.2247   28.0903    4.7351 H         1 UNK         0.0545 
    132 H132       34.5063   28.2821    8.7530 H         1 UNK         0.3459 
    133 H133       33.1230   28.9445    7.9222 H         1 UNK         0.3459 
    134 H134       33.5155   25.6627    5.3510 H         1 UNK         0.0616 
    135 H135       31.9457   26.3242    5.7204 H         1 UNK         0.0616 
    136 H136       34.0529   24.6245    3.3771 H         1 UNK         0.0634 
    137 H137       33.4006   24.9194    1.7878 H         1 UNK         0.0634 
@<TRIPOS>BOND
     1    1    2 1    
     2    1   72 1    
     3    1   73 1    
     4    1   74 1    
     5    2    3 2    
     6    2    4 am   BACKBONE|DICT|INTERRES
     7    4    5 1    
     8    4   75 1    
     9    5    6 1    
    10    5   35 1    
    11    5   76 1    
    12    6    7 1    
    13    6   77 1    
    14    6   78 1    
    15    7    8 1    
    16    8    9 1    
    17    8   79 1    
    18    8   80 1    
    19    9   10 ar   
    20    9   14 ar   
    21   10   11 ar   
    22   10   81 1    
    23   11   12 ar   
    24   11   71 1    
    25   12   13 ar   
    26   12   82 1    
    27   13   14 ar   
    28   13   15 1    
    29   14   83 1    
    30   15   16 1    
    31   15   84 1    
    32   15   85 1    
    33   16   17 1    
    34   17   18 1    
    35   17   86 1    
    36   17   87 1    
    37   18   19 1    
    38   18   37 1    
    39   18   88 1    
    40   19   20 am   BACKBONE|DICT|INTERRES
    41   19   89 1    
    42   20   21 2    
    43   20   22 1    
    44   22   23 1    
    45   22   24 1    
    46   22   90 1    
    47   23   91 1    
    48   23   92 1    
    49   23   93 1    
    50   24   25 am   BACKBONE|DICT|INTERRES
    51   24   94 1    
    52   25   26 2    
    53   25   27 1    
    54   27   28 1    
    55   27   29 1    
    56   27   95 1    
    57   28   96 1    
    58   28   97 1    
    59   28   98 1    
    60   29   30 am   BACKBONE|DICT|INTERRES
    61   29   99 1    
    62   30   31 2    
    63   30   32 1    
    64   32   33 1    
    65   32   34 1    
    66   32  100 1    
    67   33  101 1    
    68   33  102 1    
    69   33  103 1    
    70   34   35 am   BACKBONE|DICT|INTERRES
    71   34  104 1    
    72   35   36 2    
    73   37   38 2    
    74   37   39 am   BACKBONE|DICT|INTERRES
    75   39   40 1    
    76   39  105 1    
    77   40   41 1    
    78   40   42 1    
    79   40  106 1    
    80   41  107 1    
    81   41  108 1    
    82   41  109 1    
    83   42   43 2    
    84   42   44 am   BACKBONE|DICT|INTERRES
    85   44   45 1    
    86   44  110 1    
    87   45   46 1    
    88   45   47 1    
    89   45  111 1    
    90   46  112 1    
    91   46  113 1    
    92   46  114 1    
    93   47   48 2    
    94   47   49 am   BACKBONE|DICT|INTERRES
    95   49   50 1    
    96   49  115 1    
    97   50   51 1    
    98   50   52 1    
    99   50  116 1    
   100   51  117 1    
   101   51  118 1    
   102   51  119 1    
   103   52   53 2    
   104   52   54 am   BACKBONE|DICT|INTERRES
   105   54   55 1    
   106   54  120 1    
   107   55   56 1    
   108   55   57 1    
   109   55  121 1    
   110   56  122 1    
   111   56  123 1    
   112   56  124 1    
   113   57   58 2    
   114   57   59 am   BACKBONE|DICT|INTERRES
   115   59   60 1    
   116   59  125 1    
   117   60   61 1    
   118   60   62 1    
   119   60  126 1    
   120   61  127 1    
   121   61  128 1    
   122   61  129 1    
   123   62   63 2    
   124   62   64 am   BACKBONE|DICT|INTERRES
   125   64   65 1    
   126   64  130 1    
   127   65   66 1    
   128   65   69 1    
   129   65  131 1    
   130   66   67 am   BACKBONE|DICT|INTERRES
   131   66   68 2    
   132   67  132 1    
   133   67  133 1    
   134   69   70 1    
   135   69  134 1    
   136   69  135 1    
   137   70   71 1    
   138   71  136 1    
   139   71  137 1    
@<TRIPOS>SUBSTRUCTURE
     1 UNK         1 GROUP             0       ****    0 ROOT    
