@<TRIPOS>MOLECULE
3R136
137   139    1
SMALL
USER_CHARGES


@<TRIPOS>ATOM
      1 CA         33.2205   20.7539   -1.4004 C.3       0 UNK        -0.1979 
      2 C          32.2040   21.8644   -1.1782 C.2       0 UNK         0.4864 
      3 O          31.9057   22.6144   -2.1093 O.2       0 UNK        -0.5359 
      4 N          31.6780   21.9793    0.0485 N.am      1 UNK        -0.4318 
      5 CA         30.6380   22.9428    0.4226 C.3       1 UNK         0.0824 
      6 C6         30.6441   23.2101    1.9487 C.3       12 UNK        -0.0944 
      7 S7         30.0672   24.8929    2.3480 S.3       12 UNK        -0.2672 
      8 C8         28.8971   24.5699    3.7014 C.3       12 UNK         0.0333 
      9 C9         28.6562   25.8464    4.4886 C.ar      12 UNK        -0.0807 
     10 C10        29.4458   26.1409    5.6045 C.ar      12 UNK        -0.0894 
     11 C11        29.2758   27.3445    6.2942 C.ar      12 UNK        -0.0804 
     12 C12        28.3118   28.2568    5.8575 C.ar      12 UNK        -0.0824 
     13 C13        27.5125   27.9705    4.7473 C.ar      12 UNK        -0.0762 
     14 C14        27.6743   26.7524    4.0783 C.ar      12 UNK        -0.0782 
     15 C15        26.4982   28.9962    4.2665 C.3       12 UNK         0.0230 
     16 S16        27.3003   30.2392    3.2004 S.3       12 UNK        -0.2608 
     17 C17        26.4580   29.9577    1.6095 C.3       12 UNK        -0.0989 
     18 CA         27.0001   28.7127    0.8535 C.3       5 UNK         0.0716 
     19 N          25.9774   28.0246    0.0655 N.am      5 UNK        -0.4135 
     20 C          25.2173   28.5517   -0.9069 C.2       4 UNK         0.5031 
     21 O          25.2932   29.7246   -1.2743 O.2       4 UNK        -0.5229 
     22 CA         24.1935   27.6239   -1.5981 C.3       4 UNK         0.0329 
     23 CB         24.5969   27.3785   -3.0622 C.3       4 UNK        -0.2001 
     24 N          24.0236   26.3272   -0.9364 N.am      4 UNK        -0.4303 
     25 C          23.4860   26.1285    0.2761 C.2       3 UNK         0.5044 
     26 O          22.9254   27.0097    0.9276 O.2       3 UNK        -0.5152 
     27 CA         23.6494   24.7237    0.8909 C.3       3 UNK         0.0319 
     28 CB         22.3218   23.9516    0.8249 C.3       3 UNK        -0.2001 
     29 N          24.7106   23.9080    0.2817 N.am      3 UNK        -0.4354 
     30 C          26.0167   24.2105    0.2510 C.2       2 UNK         0.4964 
     31 O          26.5021   25.2456    0.7199 O.2       2 UNK        -0.5047 
     32 CA         26.9137   23.2264   -0.5037 C.3       2 UNK         0.0288 
     33 CB         26.7982   23.4404   -2.0248 C.3       2 UNK        -0.2113 
     34 N          28.2961   23.4300   -0.0870 N.am      2 UNK        -0.4145 
     35 C          29.2485   22.4926   -0.0796 C.2       1 UNK         0.5006 
     36 O          29.0574   21.3221   -0.4242 O.2       1 UNK        -0.5103 
     37 C          28.2732   28.9488    0.0201 C.2       5 UNK         0.5055 
     38 O          28.8148   30.0545   -0.0059 O.2       5 UNK        -0.5220 
     39 N          28.7245   27.8792   -0.6529 N.am      6 UNK        -0.4450 
     40 CA         29.8748   27.8642   -1.5616 C.3       6 UNK         0.0367 
     41 CB         29.9713   26.4825   -2.2292 C.3       6 UNK        -0.1929 
     42 C          31.2138   28.2415   -0.9012 C.2       6 UNK         0.5070 
     43 O          32.0633   28.8336   -1.5672 O.2       6 UNK        -0.5237 
     44 N          31.3789   27.9090    0.3872 N.am      7 UNK        -0.4739 
     45 CA         32.5546   28.2797    1.1806 C.3       7 UNK         0.0276 
     46 CB         32.6666   27.3478    2.3978 C.3       7 UNK        -0.1927 
     47 C          32.5379   29.7457    1.6452 C.2       7 UNK         0.5013 
     48 O          33.6034   30.2825    1.9485 O.2       7 UNK        -0.5193 
     49 N          31.3488   30.3631    1.7226 N.am      8 UNK        -0.4253 
     50 CA         31.0918   31.6982    2.2720 C.3       8 UNK         0.0242 
     51 CB         31.5970   32.7888    1.2998 C.3       8 UNK        -0.2000 
     52 C          31.6381   31.8251    3.7096 C.2       8 UNK         0.4948 
     53 O          31.0880   31.1990    4.6146 O.2       8 UNK        -0.5275 
     54 N          32.7129   32.6030    3.8912 N.am      9 UNK        -0.4246 
     55 CA         33.4049   32.7884    5.1682 C.3       9 UNK         0.0261 
     56 CB         33.9530   34.2249    5.2240 C.3       9 UNK        -0.1959 
     57 C          34.5415   31.7751    5.4086 C.2       9 UNK         0.5033 
     58 O          35.0550   31.7239    6.5277 O.2       9 UNK        -0.5390 
     59 N          34.9434   30.9993    4.3881 N.am      10 UNK        -0.4215 
     60 CA         36.0976   30.0904    4.4500 C.3       10 UNK         0.0240 
     61 CB         36.5527   29.7286    3.0257 C.3       10 UNK        -0.1982 
     62 C          35.8601   28.8153    5.2793 C.2       10 UNK         0.4970 
     63 O          36.8241   28.0995    5.5545 O.2       10 UNK        -0.4916 
     64 N          34.6056   28.5466    5.6625 N.am      11 UNK        -0.4279 
     65 CA         34.2167   27.4329    6.5391 C.3       11 UNK         0.1003 
     66 C          34.7030   27.5517    8.0160 C.2       11 UNK         0.5709 
     67 N          35.1615   28.7110    8.4762 N.am      11 UNK        -0.7358 
     68 O          34.6737   26.5678    8.7515 O.2       11 UNK        -0.4999 
     69 C69        32.6957   27.1491    6.4426 C.3       12 UNK        -0.0954 
     70 S70        31.6598   28.5408    7.0140 S.3       12 UNK        -0.2268 
     71 C71        30.1386   27.6731    7.5025 C.3       12 UNK         0.0203 
     72 H72        34.1697   21.1746   -1.7313 H         1 UNK         0.0888 
     73 H73        33.4027   20.1796   -0.4922 H         1 UNK         0.0888 
     74 H74        32.8644   20.0685   -2.1691 H         1 UNK         0.0888 
     75 H75        31.9345   21.3112    0.7611 H         1 UNK         0.3017 
     76 H76        30.8814   23.8767   -0.0888 H         1 UNK         0.0873 
     77 H77        30.0658   22.4583    2.4901 H         1 UNK         0.0745 
     78 H78        31.6603   23.1393    2.3405 H         1 UNK         0.0745 
     79 H79        27.9611   24.1854    3.2926 H         1 UNK         0.0705 
     80 H80        29.2950   23.7969    4.3608 H         1 UNK         0.0705 
     81 H81        30.2074   25.4426    5.9232 H         1 UNK         0.1334 
     82 H82        28.1955   29.2011    6.3721 H         1 UNK         0.1417 
     83 H83        27.0584   26.5126    3.2229 H         1 UNK         0.1562 
     84 H84        26.0476   29.5018    5.1219 H         1 UNK         0.0748 
     85 H85        25.6793   28.5014    3.7421 H         1 UNK         0.0748 
     86 H86        26.5344   30.8585    0.9975 H         1 UNK         0.0940 
     87 H87        25.3925   29.8451    1.8168 H         1 UNK         0.0940 
     88 H88        27.2956   27.9774    1.5976 H         1 UNK         0.0703 
     89 H89        25.8731   27.0365    0.2750 H         1 UNK         0.3081 
     90 H90        23.2306   28.1385   -1.5856 H         1 UNK         0.0719 
     91 H91        24.6918   28.3200   -3.6052 H         1 UNK         0.0809 
     92 H92        25.5550   26.8623   -3.1368 H         1 UNK         0.0809 
     93 H93        23.8502   26.7809   -3.5857 H         1 UNK         0.0809 
     94 H94        24.4368   25.5308   -1.3983 H         1 UNK         0.2990 
     95 H95        23.9109   24.8656    1.9417 H         1 UNK         0.0690 
     96 H96        22.3912   22.9956    1.3444 H         1 UNK         0.0788 
     97 H97        22.0196   23.7549   -0.2046 H         1 UNK         0.0788 
     98 H98        21.5168   24.5159    1.2983 H         1 UNK         0.0788 
     99 H99        24.4094   23.0455   -0.1502 H         1 UNK         0.2993 
    100 H100       26.6007   22.2118   -0.2464 H         1 UNK         0.0949 
    101 H101       27.0907   24.4510   -2.3134 H         1 UNK         0.0767 
    102 H102       27.4335   22.7428   -2.5712 H         1 UNK         0.0767 
    103 H103       25.7766   23.2815   -2.3723 H         1 UNK         0.0767 
    104 H104       28.4832   24.3368    0.3230 H         1 UNK         0.3013 
    105 H105       28.2078   27.0163   -0.5671 H         1 UNK         0.3121 
    106 H106       29.6810   28.6054   -2.3400 H         1 UNK         0.0774 
    107 H107       30.1270   25.6894   -1.4982 H         1 UNK         0.0815 
    108 H108       29.0689   26.2481   -2.7940 H         1 UNK         0.0815 
    109 H109       30.8069   26.4454   -2.9298 H         1 UNK         0.0815 
    110 H110       30.6445   27.4025    0.8608 H         1 UNK         0.2987 
    111 H111       33.4488   28.1447    0.5678 H         1 UNK         0.0949 
    112 H112       32.7716   26.3069    2.0922 H         1 UNK         0.0806 
    113 H113       33.5416   27.5943    3.0007 H         1 UNK         0.0806 
    114 H114       31.7922   27.4238    3.0460 H         1 UNK         0.0806 
    115 H115       30.5286   29.8629    1.4048 H         1 UNK         0.3010 
    116 H116       30.0076   31.7980    2.3461 H         1 UNK         0.0829 
    117 H117       32.6685   32.7175    1.1102 H         1 UNK         0.0813 
    118 H118       31.3894   33.7882    1.6848 H         1 UNK         0.0813 
    119 H119       31.0916   32.7085    0.3371 H         1 UNK         0.0813 
    120 H120       33.1140   33.0592    3.0841 H         1 UNK         0.3038 
    121 H121       32.6913   32.6698    5.9866 H         1 UNK         0.0769 
    122 H122       33.1538   34.9588    5.1177 H         1 UNK         0.0811 
    123 H123       34.6863   34.4093    4.4379 H         1 UNK         0.0811 
    124 H124       34.4433   34.4203    6.1788 H         1 UNK         0.0811 
    125 H125       34.4353   31.0186    3.5058 H         1 UNK         0.3204 
    126 H126       36.9166   30.6308    4.9296 H         1 UNK         0.0748 
    127 H127       35.8330   29.0830    2.5219 H         1 UNK         0.0771 
    128 H128       36.6958   30.6182    2.4122 H         1 UNK         0.0771 
    129 H129       37.5030   29.1935    3.0461 H         1 UNK         0.0771 
    130 H130       33.8712   29.1942    5.4185 H         1 UNK         0.2980 
    131 H131       34.7189   26.5468    6.1462 H         1 UNK         0.0545 
    132 H132       35.1755   29.5281    7.8837 H         1 UNK         0.3459 
    133 H133       35.4771   28.7734    9.4309 H         1 UNK         0.3459 
    134 H134       32.4480   26.2531    7.0141 H         1 UNK         0.0616 
    135 H135       32.4239   26.9254    5.4104 H         1 UNK         0.0616 
    136 H136       29.5817   28.3106    8.1909 H         1 UNK         0.0634 
    137 H137       30.3826   26.7679    8.0603 H         1 UNK         0.0634 
@<TRIPOS>BOND
     1    1    2 1    
     2    1   72 1    
     3    1   73 1    
     4    1   74 1    
     5    2    3 2    
     6    2    4 am   BACKBONE|DICT|INTERRES
     7    4    5 1    
     8    4   75 1    
     9    5    6 1    
    10    5   35 1    
    11    5   76 1    
    12    6    7 1    
    13    6   77 1    
    14    6   78 1    
    15    7    8 1    
    16    8    9 1    
    17    8   79 1    
    18    8   80 1    
    19    9   10 ar   
    20    9   14 ar   
    21   10   11 ar   
    22   10   81 1    
    23   11   12 ar   
    24   11   71 1    
    25   12   13 ar   
    26   12   82 1    
    27   13   14 ar   
    28   13   15 1    
    29   14   83 1    
    30   15   16 1    
    31   15   84 1    
    32   15   85 1    
    33   16   17 1    
    34   17   18 1    
    35   17   86 1    
    36   17   87 1    
    37   18   19 1    
    38   18   37 1    
    39   18   88 1    
    40   19   20 am   BACKBONE|DICT|INTERRES
    41   19   89 1    
    42   20   21 2    
    43   20   22 1    
    44   22   23 1    
    45   22   24 1    
    46   22   90 1    
    47   23   91 1    
    48   23   92 1    
    49   23   93 1    
    50   24   25 am   BACKBONE|DICT|INTERRES
    51   24   94 1    
    52   25   26 2    
    53   25   27 1    
    54   27   28 1    
    55   27   29 1    
    56   27   95 1    
    57   28   96 1    
    58   28   97 1    
    59   28   98 1    
    60   29   30 am   BACKBONE|DICT|INTERRES
    61   29   99 1    
    62   30   31 2    
    63   30   32 1    
    64   32   33 1    
    65   32   34 1    
    66   32  100 1    
    67   33  101 1    
    68   33  102 1    
    69   33  103 1    
    70   34   35 am   BACKBONE|DICT|INTERRES
    71   34  104 1    
    72   35   36 2    
    73   37   38 2    
    74   37   39 am   BACKBONE|DICT|INTERRES
    75   39   40 1    
    76   39  105 1    
    77   40   41 1    
    78   40   42 1    
    79   40  106 1    
    80   41  107 1    
    81   41  108 1    
    82   41  109 1    
    83   42   43 2    
    84   42   44 am   BACKBONE|DICT|INTERRES
    85   44   45 1    
    86   44  110 1    
    87   45   46 1    
    88   45   47 1    
    89   45  111 1    
    90   46  112 1    
    91   46  113 1    
    92   46  114 1    
    93   47   48 2    
    94   47   49 am   BACKBONE|DICT|INTERRES
    95   49   50 1    
    96   49  115 1    
    97   50   51 1    
    98   50   52 1    
    99   50  116 1    
   100   51  117 1    
   101   51  118 1    
   102   51  119 1    
   103   52   53 2    
   104   52   54 am   BACKBONE|DICT|INTERRES
   105   54   55 1    
   106   54  120 1    
   107   55   56 1    
   108   55   57 1    
   109   55  121 1    
   110   56  122 1    
   111   56  123 1    
   112   56  124 1    
   113   57   58 2    
   114   57   59 am   BACKBONE|DICT|INTERRES
   115   59   60 1    
   116   59  125 1    
   117   60   61 1    
   118   60   62 1    
   119   60  126 1    
   120   61  127 1    
   121   61  128 1    
   122   61  129 1    
   123   62   63 2    
   124   62   64 am   BACKBONE|DICT|INTERRES
   125   64   65 1    
   126   64  130 1    
   127   65   66 1    
   128   65   69 1    
   129   65  131 1    
   130   66   67 am   BACKBONE|DICT|INTERRES
   131   66   68 2    
   132   67  132 1    
   133   67  133 1    
   134   69   70 1    
   135   69  134 1    
   136   69  135 1    
   137   70   71 1    
   138   71  136 1    
   139   71  137 1    
@<TRIPOS>SUBSTRUCTURE
     1 UNK         1 GROUP             0       ****    0 ROOT    
