@<TRIPOS>MOLECULE
3R136
137   139    1
SMALL
USER_CHARGES


@<TRIPOS>ATOM
      1 CA         27.7448   21.7630    1.4818 C.3       0 UNK        -0.1979 
      2 C          27.9205   22.6925    0.2912 C.2       0 UNK         0.4864 
      3 O          27.0678   22.7106   -0.5983 O.2       0 UNK        -0.5359 
      4 N          29.0083   23.4761    0.2675 N.am      1 UNK        -0.4318 
      5 CA         29.2915   24.4883   -0.7552 C.3       1 UNK         0.0824 
      6 C6         30.7089   25.0832   -0.6010 C.3       12 UNK        -0.0944 
      7 S7         32.0174   23.9890   -1.2553 S.3       12 UNK        -0.2672 
      8 C8         32.2824   22.7458    0.0562 C.3       12 UNK         0.0333 
      9 C9         32.3915   23.3335    1.4581 C.ar      12 UNK        -0.0807 
     10 C10        33.2918   24.3692    1.7350 C.ar      12 UNK        -0.0894 
     11 C11        33.3719   24.9116    3.0204 C.ar      12 UNK        -0.0804 
     12 C12        32.5605   24.3999    4.0347 C.ar      12 UNK        -0.0824 
     13 C13        31.6544   23.3698    3.7712 C.ar      12 UNK        -0.0762 
     14 C14        31.5865   22.8293    2.4851 C.ar      12 UNK        -0.0782 
     15 C15        30.7458   22.8478    4.8758 C.3       12 UNK         0.0230 
     16 S16        29.0480   23.5004    4.7346 S.3       12 UNK        -0.2608 
     17 C17        29.3188   25.2997    4.8721 C.3       12 UNK        -0.0989 
     18 CA         28.9397   26.0282    3.5532 C.3       5 UNK         0.0716 
     19 N          27.4926   26.0969    3.2934 N.am      5 UNK        -0.4135 
     20 C          26.5708   26.6932    4.0684 C.2       4 UNK         0.5031 
     21 O          26.8024   27.1482    5.1891 O.2       4 UNK        -0.5229 
     22 CA         25.1462   26.8630    3.5086 C.3       4 UNK         0.0329 
     23 CB         24.8437   28.3523    3.2674 C.3       4 UNK        -0.2001 
     24 N          24.8830   26.1394    2.2664 N.am      4 UNK        -0.4303 
     25 C          24.6473   24.8292    2.1472 C.2       3 UNK         0.5044 
     26 O          24.6866   24.0405    3.0910 O.2       3 UNK        -0.5152 
     27 CA         24.3145   24.3031    0.7371 C.3       3 UNK         0.0319 
     28 CB         22.8041   24.4035    0.4490 C.3       3 UNK        -0.2001 
     29 N          25.1145   24.9011   -0.3438 N.am      3 UNK        -0.4354 
     30 C          25.1343   26.1689   -0.7916 C.2       2 UNK         0.4964 
     31 O          24.3896   27.0525   -0.3646 O.2       2 UNK        -0.5047 
     32 CA         26.1992   26.5189   -1.8541 C.3       2 UNK         0.0288 
     33 CB         26.5634   28.0194   -1.8625 C.3       2 UNK        -0.2113 
     34 N          27.4086   25.6923   -1.7456 N.am      2 UNK        -0.4145 
     35 C          28.2242   25.5942   -0.6845 C.2       1 UNK         0.5006 
     36 O          28.1325   26.2782    0.3397 O.2       1 UNK        -0.5103 
     37 C          29.5334   27.4452    3.4305 C.2       5 UNK         0.5055 
     38 O          30.0384   28.0116    4.4038 O.2       5 UNK        -0.5220 
     39 N          29.3905   28.0068    2.2244 N.am      6 UNK        -0.4450 
     40 CA         29.6484   29.4070    1.9065 C.3       6 UNK         0.0367 
     41 CB         28.2951   30.1209    1.7266 C.3       6 UNK        -0.1929 
     42 C          30.5661   29.5518    0.6831 C.2       6 UNK         0.5070 
     43 O          30.3461   30.4400   -0.1413 O.2       6 UNK        -0.5237 
     44 N          31.6051   28.7064    0.5898 N.am      7 UNK        -0.4739 
     45 CA         32.6375   28.7894   -0.4568 C.3       7 UNK         0.0276 
     46 CB         33.5666   27.5671   -0.3876 C.3       7 UNK        -0.1927 
     47 C          33.4716   30.0811   -0.3761 C.2       7 UNK         0.5013 
     48 O          33.8848   30.6042   -1.4112 O.2       7 UNK        -0.5193 
     49 N          33.6737   30.5760    0.8507 N.am      8 UNK        -0.4253 
     50 CA         34.3081   31.8535    1.1629 C.3       8 UNK         0.0242 
     51 CB         35.6591   31.5935    1.8562 C.3       8 UNK        -0.2000 
     52 C          33.3393   32.6798    2.0216 C.2       8 UNK         0.4948 
     53 O          33.6785   33.0605    3.1427 O.2       8 UNK        -0.5275 
     54 N          32.1188   32.8871    1.5030 N.am      9 UNK        -0.4246 
     55 CA         30.9703   33.6002    2.0908 C.3       9 UNK         0.0261 
     56 CB         31.3081   35.0721    2.3994 C.3       9 UNK        -0.1959 
     57 C          30.3335   32.9085    3.3120 C.2       9 UNK         0.5033 
     58 O          29.1068   32.8687    3.4024 O.2       9 UNK        -0.5390 
     59 N          31.1584   32.3550    4.2028 N.am      10 UNK        -0.4215 
     60 CA         30.7864   31.5160    5.3355 C.3       10 UNK         0.0240 
     61 CB         30.1644   32.3556    6.4689 C.3       10 UNK        -0.1982 
     62 C          32.0644   30.8107    5.7929 C.2       10 UNK         0.4970 
     63 O          32.9878   31.4894    6.2473 O.2       10 UNK        -0.4916 
     64 N          32.1142   29.4852    5.6402 N.am      11 UNK        -0.4279 
     65 CA         33.2896   28.6592    5.9571 C.3       11 UNK         0.1003 
     66 C          32.9518   27.3192    6.6695 C.2       11 UNK         0.5709 
     67 N          31.6975   27.0388    7.0031 N.am      11 UNK        -0.7358 
     68 O          33.8485   26.5303    6.9574 O.2       11 UNK        -0.4999 
     69 C69        34.2299   28.5041    4.7303 C.3       12 UNK        -0.0954 
     70 S70        33.4495   27.6489    3.3186 S.3       12 UNK        -0.2268 
     71 C71        34.3257   26.0527    3.3283 C.3       12 UNK         0.0203 
     72 H72        28.5551   21.8590    2.2020 H         1 UNK         0.0888 
     73 H73        26.8112   21.9893    1.9968 H         1 UNK         0.0888 
     74 H74        27.7078   20.7268    1.1469 H         1 UNK         0.0888 
     75 H75        29.6661   23.4412    1.0313 H         1 UNK         0.3017 
     76 H76        29.2244   24.0052   -1.7327 H         1 UNK         0.0873 
     77 H77        30.9141   25.3620    0.4337 H         1 UNK         0.0745 
     78 H78        30.7902   26.0113   -1.1711 H         1 UNK         0.0745 
     79 H79        31.4742   22.0150    0.0028 H         1 UNK         0.0705 
     80 H80        33.1991   22.1978   -0.1652 H         1 UNK         0.0705 
     81 H81        33.9201   24.7590    0.9460 H         1 UNK         0.1334 
     82 H82        32.6267   24.8189    5.0292 H         1 UNK         0.1417 
     83 H83        30.9048   22.0137    2.2896 H         1 UNK         0.1562 
     84 H84        31.1471   23.1027    5.8581 H         1 UNK         0.0748 
     85 H85        30.7106   21.7582    4.8358 H         1 UNK         0.0748 
     86 H86        30.3606   25.4851    5.1254 H         1 UNK         0.0940 
     87 H87        28.7556   25.6778    5.7246 H         1 UNK         0.0940 
     88 H88        29.3767   25.4594    2.7307 H         1 UNK         0.0703 
     89 H89        27.2098   25.8152    2.3644 H         1 UNK         0.3081 
     90 H90        24.4567   26.4932    4.2705 H         1 UNK         0.0719 
     91 H91        24.9956   28.9388    4.1746 H         1 UNK         0.0809 
     92 H92        25.4884   28.7728    2.4946 H         1 UNK         0.0809 
     93 H93        23.8091   28.5018    2.9577 H         1 UNK         0.0809 
     94 H94        24.7920   26.6965    1.4201 H         1 UNK         0.2990 
     95 H95        24.5748   23.2434    0.7354 H         1 UNK         0.0690 
     96 H96        22.5567   23.9729   -0.5213 H         1 UNK         0.0788 
     97 H97        22.4516   25.4353    0.4582 H         1 UNK         0.0788 
     98 H98        22.2296   23.8604    1.2005 H         1 UNK         0.0788 
     99 H99        25.8037   24.2619   -0.7307 H         1 UNK         0.2993 
    100 H100       25.7474   26.2823   -2.8187 H         1 UNK         0.0949 
    101 H101       26.9563   28.3455   -0.8999 H         1 UNK         0.0767 
    102 H102       27.3126   28.2419   -2.6222 H         1 UNK         0.0767 
    103 H103       25.6896   28.6344   -2.0813 H         1 UNK         0.0767 
    104 H104       27.5654   25.0610   -2.5198 H         1 UNK         0.3013 
    105 H105       28.9656   27.4523    1.4812 H         1 UNK         0.3121 
    106 H106       30.1783   29.8890    2.7290 H         1 UNK         0.0774 
    107 H107       27.6950   29.6548    0.9457 H         1 UNK         0.0815 
    108 H108       27.7175   30.1032    2.6509 H         1 UNK         0.0815 
    109 H109       28.4266   31.1681    1.4532 H         1 UNK         0.0815 
    110 H110       31.7356   28.0127    1.3137 H         1 UNK         0.2987 
    111 H111       32.1300   28.7806   -1.4240 H         1 UNK         0.0949 
    112 H112       33.0083   26.6350   -0.3974 H         1 UNK         0.0806 
    113 H113       34.2408   27.5467   -1.2447 H         1 UNK         0.0806 
    114 H114       34.1883   27.5746    0.5071 H         1 UNK         0.0806 
    115 H115       33.2902   30.0645    1.6334 H         1 UNK         0.3010 
    116 H116       34.4944   32.4272    0.2524 H         1 UNK         0.0829 
    117 H117       35.5366   31.0431    2.7894 H         1 UNK         0.0813 
    118 H118       36.1635   32.5311    2.0930 H         1 UNK         0.0813 
    119 H119       36.3276   31.0188    1.2150 H         1 UNK         0.0813 
    120 H120       31.9319   32.4728    0.5985 H         1 UNK         0.3038 
    121 H121       30.2070   33.6012    1.3107 H         1 UNK         0.0769 
    122 H122       31.6892   35.5852    1.5166 H         1 UNK         0.0811 
    123 H123       32.0531   35.1656    3.1901 H         1 UNK         0.0811 
    124 H124       30.4196   35.6120    2.7296 H         1 UNK         0.0811 
    125 H125       32.1602   32.4887    4.0621 H         1 UNK         0.3204 
    126 H126       30.0582   30.7723    5.0052 H         1 UNK         0.0748 
    127 H127       30.8340   33.1526    6.7949 H         1 UNK         0.0771 
    128 H128       29.2262   32.8148    6.1577 H         1 UNK         0.0771 
    129 H129       29.9462   31.7340    7.3381 H         1 UNK         0.0771 
    130 H130       31.3306   28.9855    5.2203 H         1 UNK         0.2980 
    131 H131       33.8671   29.1874    6.7178 H         1 UNK         0.0545 
    132 H132       31.5022   26.1822    7.4950 H         1 UNK         0.3459 
    133 H133       30.9463   27.6666    6.7648 H         1 UNK         0.3459 
    134 H134       35.1558   28.0024    5.0149 H         1 UNK         0.0616 
    135 H135       34.5364   29.4922    4.3856 H         1 UNK         0.0616 
    136 H136       34.7864   25.8727    4.3004 H         1 UNK         0.0634 
    137 H137       35.1398   26.0865    2.6030 H         1 UNK         0.0634 
@<TRIPOS>BOND
     1    1    2 1    
     2    1   72 1    
     3    1   73 1    
     4    1   74 1    
     5    2    3 2    
     6    2    4 am   BACKBONE|DICT|INTERRES
     7    4    5 1    
     8    4   75 1    
     9    5    6 1    
    10    5   35 1    
    11    5   76 1    
    12    6    7 1    
    13    6   77 1    
    14    6   78 1    
    15    7    8 1    
    16    8    9 1    
    17    8   79 1    
    18    8   80 1    
    19    9   10 ar   
    20    9   14 ar   
    21   10   11 ar   
    22   10   81 1    
    23   11   12 ar   
    24   11   71 1    
    25   12   13 ar   
    26   12   82 1    
    27   13   14 ar   
    28   13   15 1    
    29   14   83 1    
    30   15   16 1    
    31   15   84 1    
    32   15   85 1    
    33   16   17 1    
    34   17   18 1    
    35   17   86 1    
    36   17   87 1    
    37   18   19 1    
    38   18   37 1    
    39   18   88 1    
    40   19   20 am   BACKBONE|DICT|INTERRES
    41   19   89 1    
    42   20   21 2    
    43   20   22 1    
    44   22   23 1    
    45   22   24 1    
    46   22   90 1    
    47   23   91 1    
    48   23   92 1    
    49   23   93 1    
    50   24   25 am   BACKBONE|DICT|INTERRES
    51   24   94 1    
    52   25   26 2    
    53   25   27 1    
    54   27   28 1    
    55   27   29 1    
    56   27   95 1    
    57   28   96 1    
    58   28   97 1    
    59   28   98 1    
    60   29   30 am   BACKBONE|DICT|INTERRES
    61   29   99 1    
    62   30   31 2    
    63   30   32 1    
    64   32   33 1    
    65   32   34 1    
    66   32  100 1    
    67   33  101 1    
    68   33  102 1    
    69   33  103 1    
    70   34   35 am   BACKBONE|DICT|INTERRES
    71   34  104 1    
    72   35   36 2    
    73   37   38 2    
    74   37   39 am   BACKBONE|DICT|INTERRES
    75   39   40 1    
    76   39  105 1    
    77   40   41 1    
    78   40   42 1    
    79   40  106 1    
    80   41  107 1    
    81   41  108 1    
    82   41  109 1    
    83   42   43 2    
    84   42   44 am   BACKBONE|DICT|INTERRES
    85   44   45 1    
    86   44  110 1    
    87   45   46 1    
    88   45   47 1    
    89   45  111 1    
    90   46  112 1    
    91   46  113 1    
    92   46  114 1    
    93   47   48 2    
    94   47   49 am   BACKBONE|DICT|INTERRES
    95   49   50 1    
    96   49  115 1    
    97   50   51 1    
    98   50   52 1    
    99   50  116 1    
   100   51  117 1    
   101   51  118 1    
   102   51  119 1    
   103   52   53 2    
   104   52   54 am   BACKBONE|DICT|INTERRES
   105   54   55 1    
   106   54  120 1    
   107   55   56 1    
   108   55   57 1    
   109   55  121 1    
   110   56  122 1    
   111   56  123 1    
   112   56  124 1    
   113   57   58 2    
   114   57   59 am   BACKBONE|DICT|INTERRES
   115   59   60 1    
   116   59  125 1    
   117   60   61 1    
   118   60   62 1    
   119   60  126 1    
   120   61  127 1    
   121   61  128 1    
   122   61  129 1    
   123   62   63 2    
   124   62   64 am   BACKBONE|DICT|INTERRES
   125   64   65 1    
   126   64  130 1    
   127   65   66 1    
   128   65   69 1    
   129   65  131 1    
   130   66   67 am   BACKBONE|DICT|INTERRES
   131   66   68 2    
   132   67  132 1    
   133   67  133 1    
   134   69   70 1    
   135   69  134 1    
   136   69  135 1    
   137   70   71 1    
   138   71  136 1    
   139   71  137 1    
@<TRIPOS>SUBSTRUCTURE
     1 UNK         1 GROUP             0       ****    0 ROOT    
