@<TRIPOS>MOLECULE
3R136
137   139    1
SMALL
USER_CHARGES


@<TRIPOS>ATOM
      1 CA         28.6593   22.5189   -4.4685 C.3       0 UNK        -0.1979 
      2 C          28.1035   23.2665   -3.2664 C.2       0 UNK         0.4864 
      3 O          26.9355   23.6592   -3.2741 O.2       0 UNK        -0.5359 
      4 N          28.9184   23.4453   -2.2159 N.am      1 UNK        -0.4318 
      5 CA         28.5720   24.1882   -0.9946 C.3       1 UNK         0.0824 
      6 C6         29.8235   24.5439   -0.1552 C.3       12 UNK        -0.0944 
      7 S7         30.6604   23.0995    0.5812 S.3       12 UNK        -0.2672 
      8 C8         31.9961   23.9192    1.5169 C.3       12 UNK         0.0333 
      9 C9         31.6333   24.4538    2.9072 C.ar      12 UNK        -0.0807 
     10 C10        32.6873   24.7930    3.7613 C.ar      12 UNK        -0.0894 
     11 C11        32.4550   25.2661    5.0547 C.ar      12 UNK        -0.0804 
     12 C12        31.1323   25.4217    5.4875 C.ar      12 UNK        -0.0824 
     13 C13        30.0568   25.1025    4.6513 C.ar      12 UNK        -0.0762 
     14 C14        30.3157   24.6090    3.3650 C.ar      12 UNK        -0.0782 
     15 C15        28.6352   25.2300    5.2051 C.3       12 UNK         0.0230 
     16 S16        27.3408   25.6441    3.9839 S.3       12 UNK        -0.2608 
     17 C17        27.7406   27.3721    3.5597 C.3       12 UNK        -0.0989 
     18 CA         27.6058   27.6318    2.0363 C.3       5 UNK         0.0716 
     19 N          26.2279   27.4772    1.5596 N.am      5 UNK        -0.4135 
     20 C          25.8865   27.2091    0.2939 C.2       4 UNK         0.5031 
     21 O          26.6968   27.1288   -0.6347 O.2       4 UNK        -0.5229 
     22 CA         24.4004   26.9968    0.0000 C.3       4 UNK         0.0329 
     23 CB         23.7991   28.2331   -0.6951 C.3       4 UNK        -0.2001 
     24 N          24.2972   25.8156   -0.8499 N.am      4 UNK        -0.4303 
     25 C          23.1875   25.1147   -1.1066 C.2       3 UNK         0.5044 
     26 O          22.0661   25.4225   -0.7008 O.2       3 UNK        -0.5152 
     27 CA         23.3689   23.8334   -1.9383 C.3       3 UNK         0.0319 
     28 CB         23.5247   24.1663   -3.4310 C.3       3 UNK        -0.2001 
     29 N          24.5169   23.0432   -1.4831 N.am      3 UNK        -0.4354 
     30 C          24.5343   22.3359   -0.3399 C.2       2 UNK         0.4964 
     31 O          23.5561   22.2112    0.3979 O.2       2 UNK        -0.5047 
     32 CA         25.8550   21.6491    0.0621 C.3       2 UNK         0.0288 
     33 CB         25.8549   20.1772   -0.3814 C.3       2 UNK        -0.2113 
     34 N          27.0399   22.3135   -0.4812 N.am      2 UNK        -0.4145 
     35 C          27.4479   23.5461   -0.1454 C.2       1 UNK         0.5006 
     36 O          26.9468   24.1889    0.7754 O.2       1 UNK        -0.5103 
     37 C          28.1888   28.9970    1.6226 C.2       5 UNK         0.5055 
     38 O          28.4331   29.8501    2.4752 O.2       5 UNK        -0.5220 
     39 N          28.4522   29.1691    0.3201 N.am      6 UNK        -0.4450 
     40 CA         29.1705   30.3165   -0.2526 C.3       6 UNK         0.0367 
     41 CB         29.1743   30.1960   -1.7844 C.3       6 UNK        -0.1929 
     42 C          30.6101   30.4611    0.2834 C.2       6 UNK         0.5070 
     43 O          31.1533   31.5653    0.2945 O.2       6 UNK        -0.5237 
     44 N          31.1790   29.3458    0.7611 N.am      7 UNK        -0.4739 
     45 CA         32.4619   29.2559    1.4557 C.3       7 UNK         0.0276 
     46 CB         32.8737   27.7766    1.5288 C.3       7 UNK        -0.1927 
     47 C          32.4711   29.8754    2.8666 C.2       7 UNK         0.5013 
     48 O          33.5510   29.9591    3.4513 O.2       7 UNK        -0.5193 
     49 N          31.3141   30.3024    3.4038 N.am      8 UNK        -0.4253 
     50 CA         31.1581   30.8747    4.7509 C.3       8 UNK         0.0242 
     51 CB         29.6949   31.2771    4.9888 C.3       8 UNK        -0.2000 
     52 C          32.0928   32.0534    5.0785 C.2       8 UNK         0.4948 
     53 O          32.4858   32.1999    6.2359 O.2       8 UNK        -0.5275 
     54 N          32.4722   32.8357    4.0578 N.am      9 UNK        -0.4246 
     55 CA         33.4626   33.9123    4.1519 C.3       9 UNK         0.0261 
     56 CB         33.4863   34.6933    2.8281 C.3       9 UNK        -0.1959 
     57 C          34.8800   33.4249    4.5155 C.2       9 UNK         0.5033 
     58 O          35.6285   34.1818    5.1356 O.2       9 UNK        -0.5390 
     59 N          35.2204   32.1853    4.1359 N.am      10 UNK        -0.4215 
     60 CA         36.4648   31.5104    4.5060 C.3       10 UNK         0.0240 
     61 CB         36.9727   30.6823    3.3136 C.3       10 UNK        -0.1982 
     62 C          36.2628   30.6145    5.7383 C.2       10 UNK         0.4970 
     63 O          37.1575   30.5491    6.5819 O.2       10 UNK        -0.4916 
     64 N          35.1057   29.9408    5.8172 N.am      11 UNK        -0.4279 
     65 CA         34.7112   29.0602    6.9263 C.3       11 UNK         0.1003 
     66 C          34.5868   29.7837    8.2980 C.2       11 UNK         0.5709 
     67 N          34.0435   30.9943    8.3470 N.am      11 UNK        -0.7358 
     68 O          34.9999   29.2477    9.3236 O.2       11 UNK        -0.4999 
     69 C69        33.4225   28.2632    6.5819 C.3       12 UNK        -0.0954 
     70 S70        33.3733   26.6290    7.3834 S.3       12 UNK        -0.2268 
     71 C71        33.6619   25.5173    5.9642 C.3       12 UNK         0.0203 
     72 H72        28.6189   23.1529   -5.3537 H         1 UNK         0.0888 
     73 H73        29.6944   22.2138   -4.3162 H         1 UNK         0.0888 
     74 H74        28.0661   21.6255   -4.6618 H         1 UNK         0.0888 
     75 H75        29.8590   23.0763   -2.2447 H         1 UNK         0.3017 
     76 H76        28.1573   25.1362   -1.3405 H         1 UNK         0.0873 
     77 H77        29.5576   25.2436    0.6362 H         1 UNK         0.0745 
     78 H78        30.5428   25.0754   -0.7804 H         1 UNK         0.0745 
     79 H79        32.8002   23.1899    1.6269 H         1 UNK         0.0705 
     80 H80        32.4066   24.7329    0.9177 H         1 UNK         0.0705 
     81 H81        33.7063   24.6626    3.4219 H         1 UNK         0.1334 
     82 H82        30.9302   25.7634    6.4927 H         1 UNK         0.1417 
     83 H83        29.4831   24.3304    2.7359 H         1 UNK         0.1562 
     84 H84        28.6039   25.9787    5.9986 H         1 UNK         0.0748 
     85 H85        28.3698   24.2806    5.6716 H         1 UNK         0.0748 
     86 H86        28.7595   27.5832    3.8919 H         1 UNK         0.0940 
     87 H87        27.0912   28.0389    4.1300 H         1 UNK         0.0940 
     88 H88        28.2159   26.8780    1.5361 H         1 UNK         0.0703 
     89 H89        25.5063   27.5376    2.2628 H         1 UNK         0.3081 
     90 H90        23.8693   26.8051    0.9348 H         1 UNK         0.0719 
     91 H91        22.7326   28.1095   -0.8829 H         1 UNK         0.0809 
     92 H92        24.2860   28.4323   -1.6508 H         1 UNK         0.0809 
     93 H93        23.9158   29.1239   -0.0766 H         1 UNK         0.0809 
     94 H94        25.1834   25.4898   -1.2146 H         1 UNK         0.2990 
     95 H95        22.4673   23.2278   -1.8222 H         1 UNK         0.0690 
     96 H96        23.5997   23.2605   -4.0329 H         1 UNK         0.0788 
     97 H97        24.4135   24.7687   -3.6228 H         1 UNK         0.0788 
     98 H98        22.6643   24.7286   -3.7964 H         1 UNK         0.0788 
     99 H99        25.3621   23.1051   -2.0425 H         1 UNK         0.2993 
    100 H100       25.9215   21.6824    1.1520 H         1 UNK         0.0949 
    101 H101       26.7506   19.6590   -0.0380 H         1 UNK         0.0767 
    102 H102       24.9965   19.6456    0.0320 H         1 UNK         0.0767 
    103 H103       25.8055   20.0821   -1.4670 H         1 UNK         0.0767 
    104 H104       27.5156   21.8509   -1.2415 H         1 UNK         0.3013 
    105 H105       28.1321   28.4471   -0.3202 H         1 UNK         0.3121 
    106 H106       28.6264   31.2223    0.0233 H         1 UNK         0.0774 
    107 H107       29.6775   31.0492   -2.2415 H         1 UNK         0.0815 
    108 H108       29.6912   29.2952   -2.1175 H         1 UNK         0.0815 
    109 H109       28.1599   30.1681   -2.1829 H         1 UNK         0.0815 
    110 H110       30.6509   28.4894    0.6880 H         1 UNK         0.2987 
    111 H111       33.2068   29.7947    0.8661 H         1 UNK         0.0949 
    112 H112       32.1560   27.1924    2.1054 H         1 UNK         0.0806 
    113 H113       32.9509   27.3338    0.5358 H         1 UNK         0.0806 
    114 H114       33.8466   27.6604    2.0090 H         1 UNK         0.0806 
    115 H115       30.4594   30.1911    2.8690 H         1 UNK         0.3010 
    116 H116       31.3954   30.0800    5.4559 H         1 UNK         0.0829 
    117 H117       29.0398   30.4061    4.9793 H         1 UNK         0.0813 
    118 H118       29.5700   31.7565    5.9609 H         1 UNK         0.0813 
    119 H119       29.3393   31.9756    4.2304 H         1 UNK         0.0813 
    120 H120       32.0938   32.6401    3.1414 H         1 UNK         0.3038 
    121 H121       33.1388   34.5905    4.9443 H         1 UNK         0.0769 
    122 H122       34.1991   35.5181    2.8744 H         1 UNK         0.0811 
    123 H123       32.5104   35.1237    2.6029 H         1 UNK         0.0811 
    124 H124       33.7761   34.0588    1.9894 H         1 UNK         0.0811 
    125 H125       34.5247   31.6084    3.6725 H         1 UNK         0.3204 
    126 H126       37.2305   32.2496    4.7512 H         1 UNK         0.0748 
    127 H127       37.9105   30.1817    3.5585 H         1 UNK         0.0771 
    128 H128       36.2594   29.9118    3.0179 H         1 UNK         0.0771 
    129 H129       37.1604   31.3145    2.4456 H         1 UNK         0.0771 
    130 H130       34.4518   30.0065    5.0424 H         1 UNK         0.2980 
    131 H131       35.5296   28.3442    7.0249 H         1 UNK         0.0545 
    132 H132       33.6416   31.4238    7.5177 H         1 UNK         0.3459 
    133 H133       33.9726   31.4643    9.2347 H         1 UNK         0.3459 
    134 H134       33.3335   28.1163    5.5043 H         1 UNK         0.0616 
    135 H135       32.5288   28.8109    6.8811 H         1 UNK         0.0616 
    136 H136       34.4958   25.9111    5.3806 H         1 UNK         0.0634 
    137 H137       33.9910   24.5542    6.3559 H         1 UNK         0.0634 
@<TRIPOS>BOND
     1    1    2 1    
     2    1   72 1    
     3    1   73 1    
     4    1   74 1    
     5    2    3 2    
     6    2    4 am   BACKBONE|DICT|INTERRES
     7    4    5 1    
     8    4   75 1    
     9    5    6 1    
    10    5   35 1    
    11    5   76 1    
    12    6    7 1    
    13    6   77 1    
    14    6   78 1    
    15    7    8 1    
    16    8    9 1    
    17    8   79 1    
    18    8   80 1    
    19    9   10 ar   
    20    9   14 ar   
    21   10   11 ar   
    22   10   81 1    
    23   11   12 ar   
    24   11   71 1    
    25   12   13 ar   
    26   12   82 1    
    27   13   14 ar   
    28   13   15 1    
    29   14   83 1    
    30   15   16 1    
    31   15   84 1    
    32   15   85 1    
    33   16   17 1    
    34   17   18 1    
    35   17   86 1    
    36   17   87 1    
    37   18   19 1    
    38   18   37 1    
    39   18   88 1    
    40   19   20 am   BACKBONE|DICT|INTERRES
    41   19   89 1    
    42   20   21 2    
    43   20   22 1    
    44   22   23 1    
    45   22   24 1    
    46   22   90 1    
    47   23   91 1    
    48   23   92 1    
    49   23   93 1    
    50   24   25 am   BACKBONE|DICT|INTERRES
    51   24   94 1    
    52   25   26 2    
    53   25   27 1    
    54   27   28 1    
    55   27   29 1    
    56   27   95 1    
    57   28   96 1    
    58   28   97 1    
    59   28   98 1    
    60   29   30 am   BACKBONE|DICT|INTERRES
    61   29   99 1    
    62   30   31 2    
    63   30   32 1    
    64   32   33 1    
    65   32   34 1    
    66   32  100 1    
    67   33  101 1    
    68   33  102 1    
    69   33  103 1    
    70   34   35 am   BACKBONE|DICT|INTERRES
    71   34  104 1    
    72   35   36 2    
    73   37   38 2    
    74   37   39 am   BACKBONE|DICT|INTERRES
    75   39   40 1    
    76   39  105 1    
    77   40   41 1    
    78   40   42 1    
    79   40  106 1    
    80   41  107 1    
    81   41  108 1    
    82   41  109 1    
    83   42   43 2    
    84   42   44 am   BACKBONE|DICT|INTERRES
    85   44   45 1    
    86   44  110 1    
    87   45   46 1    
    88   45   47 1    
    89   45  111 1    
    90   46  112 1    
    91   46  113 1    
    92   46  114 1    
    93   47   48 2    
    94   47   49 am   BACKBONE|DICT|INTERRES
    95   49   50 1    
    96   49  115 1    
    97   50   51 1    
    98   50   52 1    
    99   50  116 1    
   100   51  117 1    
   101   51  118 1    
   102   51  119 1    
   103   52   53 2    
   104   52   54 am   BACKBONE|DICT|INTERRES
   105   54   55 1    
   106   54  120 1    
   107   55   56 1    
   108   55   57 1    
   109   55  121 1    
   110   56  122 1    
   111   56  123 1    
   112   56  124 1    
   113   57   58 2    
   114   57   59 am   BACKBONE|DICT|INTERRES
   115   59   60 1    
   116   59  125 1    
   117   60   61 1    
   118   60   62 1    
   119   60  126 1    
   120   61  127 1    
   121   61  128 1    
   122   61  129 1    
   123   62   63 2    
   124   62   64 am   BACKBONE|DICT|INTERRES
   125   64   65 1    
   126   64  130 1    
   127   65   66 1    
   128   65   69 1    
   129   65  131 1    
   130   66   67 am   BACKBONE|DICT|INTERRES
   131   66   68 2    
   132   67  132 1    
   133   67  133 1    
   134   69   70 1    
   135   69  134 1    
   136   69  135 1    
   137   70   71 1    
   138   71  136 1    
   139   71  137 1    
@<TRIPOS>SUBSTRUCTURE
     1 UNK         1 GROUP             0       ****    0 ROOT    
