@<TRIPOS>MOLECULE
3R136
137   139    1
SMALL
USER_CHARGES


@<TRIPOS>ATOM
      1 CA         26.7019   17.5342    1.4070 C.3       0 UNK        -0.1979 
      2 C          27.8031   18.3581    0.7559 C.2       0 UNK         0.4864 
      3 O          28.8825   17.8303    0.4839 O.2       0 UNK        -0.5359 
      4 N          27.5381   19.6435    0.5024 N.am      1 UNK        -0.4318 
      5 CA         28.4417   20.5901   -0.1469 C.3       1 UNK         0.0824 
      6 C6         29.5141   21.1392    0.8318 C.3       12 UNK        -0.0944 
      7 S7         30.9762   21.7961   -0.0391 S.3       12 UNK        -0.2672 
      8 C8         30.8501   23.5764    0.3157 C.3       12 UNK         0.0333 
      9 C9         31.3342   23.9066    1.7194 C.ar      12 UNK        -0.0807 
     10 C10        32.7053   23.9148    1.9888 C.ar      12 UNK        -0.0894 
     11 C11        33.1837   24.2158    3.2663 C.ar      12 UNK        -0.0804 
     12 C12        32.2653   24.5085    4.2819 C.ar      12 UNK        -0.0824 
     13 C13        30.8905   24.5349    4.0219 C.ar      12 UNK        -0.0762 
     14 C14        30.4290   24.2229    2.7384 C.ar      12 UNK        -0.0782 
     15 C15        29.9115   24.8731    5.1402 C.3       12 UNK         0.0230 
     16 S16        30.2481   26.5157    5.8628 S.3       12 UNK        -0.2608 
     17 C17        28.7129   27.4529    5.5586 C.3       12 UNK        -0.0989 
     18 CA         28.8970   28.5286    4.4614 C.3       5 UNK         0.0716 
     19 N          29.1369   27.9368    3.1427 N.am      5 UNK        -0.4135 
     20 C          29.5278   28.6188    2.0580 C.2       4 UNK         0.5031 
     21 O          29.7929   29.8208    2.0662 O.2       4 UNK        -0.5229 
     22 CA         29.5804   27.8410    0.7286 C.3       4 UNK         0.0329 
     23 CB         30.9815   27.2550    0.4983 C.3       4 UNK        -0.2001 
     24 N          28.5703   26.7786    0.6121 N.am      4 UNK        -0.4303 
     25 C          27.2444   26.9737    0.6803 C.2       3 UNK         0.5044 
     26 O          26.7404   28.0703    0.9278 O.2       3 UNK        -0.5152 
     27 CA         26.3313   25.7440    0.4870 C.3       3 UNK         0.0319 
     28 CB         24.9017   26.1399    0.0619 C.3       3 UNK        -0.2001 
     29 N          26.8509   24.7078   -0.4167 N.am      3 UNK        -0.4354 
     30 C          27.2106   24.8392   -1.7022 C.2       2 UNK         0.4964 
     31 O          27.2710   25.9248   -2.2806 O.2       2 UNK        -0.5047 
     32 CA         27.5439   23.5443   -2.4829 C.3       2 UNK         0.0288 
     33 CB         28.4284   23.8208   -3.7142 C.3       2 UNK        -0.2113 
     34 N          28.1723   22.4744   -1.6953 N.am      2 UNK        -0.4145 
     35 C          27.5818   21.7031   -0.7731 C.2       1 UNK         0.5006 
     36 O          26.4159   21.8616   -0.3987 O.2       1 UNK        -0.5103 
     37 C          27.7034   29.5087    4.4539 C.2       5 UNK         0.5055 
     38 O          27.7848   30.5553    5.0972 O.2       5 UNK        -0.5220 
     39 N          26.6322   29.1788    3.7150 N.am      6 UNK        -0.4450 
     40 CA         25.4517   30.0345    3.5484 C.3       6 UNK         0.0367 
     41 CB         24.2605   29.1944    3.0621 C.3       6 UNK        -0.1929 
     42 C          25.7204   31.2046    2.5878 C.2       6 UNK         0.5070 
     43 O          25.1802   32.2917    2.7897 O.2       6 UNK        -0.5237 
     44 N          26.5848   30.9756    1.5889 N.am      7 UNK        -0.4739 
     45 CA         27.1068   31.9942    0.6711 C.3       7 UNK         0.0276 
     46 CB         27.7269   31.2932   -0.5486 C.3       7 UNK        -0.1927 
     47 C          28.1284   32.9513    1.3223 C.2       7 UNK         0.5013 
     48 O          28.5094   33.9344    0.6857 O.2       7 UNK        -0.5193 
     49 N          28.5469   32.6507    2.5612 N.am      8 UNK        -0.4253 
     50 CA         29.5040   33.3809    3.3965 C.3       8 UNK         0.0242 
     51 CB         28.9844   34.7945    3.7380 C.3       8 UNK        -0.2000 
     52 C          30.9325   33.3754    2.8216 C.2       8 UNK         0.4948 
     53 O          31.6196   34.3989    2.8651 O.2       8 UNK        -0.5275 
     54 N          31.3657   32.2138    2.3122 N.am      9 UNK        -0.4246 
     55 CA         32.7521   31.9454    1.9248 C.3       9 UNK         0.0261 
     56 CB         32.7908   30.6580    1.0859 C.3       9 UNK        -0.1959 
     57 C          33.6625   31.8014    3.1584 C.2       9 UNK         0.5033 
     58 O          33.1715   31.6144    4.2752 O.2       9 UNK        -0.5390 
     59 N          34.9822   31.8320    2.9252 N.am      10 UNK        -0.4215 
     60 CA         36.0345   31.7289    3.9472 C.3       10 UNK         0.0240 
     61 CB         37.4085   31.8685    3.2711 C.3       10 UNK        -0.1982 
     62 C          35.9906   30.4528    4.8128 C.2       10 UNK         0.4970 
     63 O          36.4861   30.4809    5.9402 O.2       10 UNK        -0.4916 
     64 N          35.3948   29.3741    4.2874 N.am      11 UNK        -0.4279 
     65 CA         35.1015   28.1385    5.0279 C.3       11 UNK         0.1003 
     66 C          33.9562   28.2749    6.0802 C.2       11 UNK         0.5709 
     67 N          33.1377   29.3211    6.0524 N.am      11 UNK        -0.7358 
     68 O          33.8254   27.4296    6.9615 O.2       11 UNK        -0.4999 
     69 C69        34.8666   26.9548    4.0505 C.3       12 UNK        -0.0954 
     70 S70        35.2925   25.3430    4.7898 S.3       12 UNK        -0.2268 
     71 C71        34.6919   24.1834    3.5157 C.3       12 UNK         0.0203 
     72 H72        26.4282   16.6983    0.7640 H         1 UNK         0.0888 
     73 H73        27.0469   17.1332    2.3596 H         1 UNK         0.0888 
     74 H74        25.8061   18.1263    1.5932 H         1 UNK         0.0888 
     75 H75        26.6206   20.0309    0.6907 H         1 UNK         0.3017 
     76 H76        28.9341   20.0619   -0.9669 H         1 UNK         0.0873 
     77 H77        29.0923   21.8827    1.5099 H         1 UNK         0.0745 
     78 H78        29.8802   20.3366    1.4737 H         1 UNK         0.0745 
     79 H79        31.4578   24.1189   -0.4101 H         1 UNK         0.0705 
     80 H80        29.8245   23.9133    0.1656 H         1 UNK         0.0705 
     81 H81        33.4023   23.6732    1.1975 H         1 UNK         0.1334 
     82 H82        32.6155   24.7325    5.2802 H         1 UNK         0.1417 
     83 H83        29.3673   24.2191    2.5350 H         1 UNK         0.1562 
     84 H84        30.0063   24.1228    5.9262 H         1 UNK         0.0748 
     85 H85        28.8819   24.8106    4.7870 H         1 UNK         0.0748 
     86 H86        28.4451   27.9240    6.5070 H         1 UNK         0.0940 
     87 H87        27.8869   26.7808    5.3204 H         1 UNK         0.0940 
     88 H88        29.7816   29.1188    4.7139 H         1 UNK         0.0703 
     89 H89        28.9738   26.9466    3.0543 H         1 UNK         0.3081 
     90 H90        29.3807   28.5508   -0.0754 H         1 UNK         0.0719 
     91 H91        31.7152   28.0487    0.3648 H         1 UNK         0.0809 
     92 H92        31.0184   26.6397   -0.4004 H         1 UNK         0.0809 
     93 H93        31.3138   26.6513    1.3423 H         1 UNK         0.0809 
     94 H94        28.9006   25.8560    0.3783 H         1 UNK         0.2990 
     95 H95        26.2599   25.2740    1.4688 H         1 UNK         0.0690 
     96 H96        24.2658   25.2629   -0.0591 H         1 UNK         0.0788 
     97 H97        24.9003   26.6882   -0.8809 H         1 UNK         0.0788 
     98 H98        24.4282   26.7757    0.8099 H         1 UNK         0.0788 
     99 H99        26.7750   23.7543   -0.0757 H         1 UNK         0.2993 
    100 H100       26.5870   23.1630   -2.8460 H         1 UNK         0.0949 
    101 H101       28.6080   22.9110   -4.2875 H         1 UNK         0.0767 
    102 H102       27.9545   24.5329   -4.3912 H         1 UNK         0.0767 
    103 H103       29.3960   24.2352   -3.4282 H         1 UNK         0.0767 
    104 H104       29.1455   22.2931   -1.8999 H         1 UNK         0.3013 
    105 H105       26.6674   28.3492    3.1382 H         1 UNK         0.3121 
    106 H106       25.1915   30.4558    4.5221 H         1 UNK         0.0774 
    107 H107       24.4287   28.7947    2.0626 H         1 UNK         0.0815 
    108 H108       23.3539   29.7993    3.0183 H         1 UNK         0.0815 
    109 H109       24.0602   28.3586    3.7323 H         1 UNK         0.0815 
    110 H110       26.9160   30.0254    1.4531 H         1 UNK         0.2987 
    111 H111       26.2672   32.6021    0.3273 H         1 UNK         0.0949 
    112 H112       28.6325   30.7507   -0.2795 H         1 UNK         0.0806 
    113 H113       27.0315   30.5869   -1.0029 H         1 UNK         0.0806 
    114 H114       28.0018   32.0184   -1.3156 H         1 UNK         0.0806 
    115 H115       28.1912   31.7944    2.9643 H         1 UNK         0.3010 
    116 H116       29.5624   32.8237    4.3329 H         1 UNK         0.0829 
    117 H117       28.9556   35.4405    2.8602 H         1 UNK         0.0813 
    118 H118       27.9804   34.7563    4.1608 H         1 UNK         0.0813 
    119 H119       29.6271   35.2782    4.4745 H         1 UNK         0.0813 
    120 H120       30.7372   31.4125    2.3107 H         1 UNK         0.3038 
    121 H121       33.1100   32.7793    1.3173 H         1 UNK         0.0769 
    122 H122       33.7798   30.4899    0.6586 H         1 UNK         0.0811 
    123 H123       32.5445   29.7857    1.6923 H         1 UNK         0.0811 
    124 H124       32.0841   30.7009    0.2567 H         1 UNK         0.0811 
    125 H125       35.2971   31.9738    1.9758 H         1 UNK         0.3204 
    126 H126       35.9028   32.5737    4.6263 H         1 UNK         0.0748 
    127 H127       38.2132   31.8260    4.0069 H         1 UNK         0.0771 
    128 H128       37.5859   31.0709    2.5487 H         1 UNK         0.0771 
    129 H129       37.5013   32.8220    2.7506 H         1 UNK         0.0771 
    130 H130       35.0102   29.4419    3.3582 H         1 UNK         0.2980 
    131 H131       36.0032   27.9138    5.6012 H         1 UNK         0.0545 
    132 H132       32.4131   29.3848    6.7481 H         1 UNK         0.3459 
    133 H133       33.2369   30.0610    5.3626 H         1 UNK         0.3459 
    134 H134       33.8359   26.9447    3.6912 H         1 UNK         0.0616 
    135 H135       35.4938   27.0643    3.1642 H         1 UNK         0.0616 
    136 H136       35.2308   24.3912    2.5900 H         1 UNK         0.0634 
    137 H137       34.9683   23.1716    3.8140 H         1 UNK         0.0634 
@<TRIPOS>BOND
     1    1    2 1    
     2    1   72 1    
     3    1   73 1    
     4    1   74 1    
     5    2    3 2    
     6    2    4 am   BACKBONE|DICT|INTERRES
     7    4    5 1    
     8    4   75 1    
     9    5    6 1    
    10    5   35 1    
    11    5   76 1    
    12    6    7 1    
    13    6   77 1    
    14    6   78 1    
    15    7    8 1    
    16    8    9 1    
    17    8   79 1    
    18    8   80 1    
    19    9   10 ar   
    20    9   14 ar   
    21   10   11 ar   
    22   10   81 1    
    23   11   12 ar   
    24   11   71 1    
    25   12   13 ar   
    26   12   82 1    
    27   13   14 ar   
    28   13   15 1    
    29   14   83 1    
    30   15   16 1    
    31   15   84 1    
    32   15   85 1    
    33   16   17 1    
    34   17   18 1    
    35   17   86 1    
    36   17   87 1    
    37   18   19 1    
    38   18   37 1    
    39   18   88 1    
    40   19   20 am   BACKBONE|DICT|INTERRES
    41   19   89 1    
    42   20   21 2    
    43   20   22 1    
    44   22   23 1    
    45   22   24 1    
    46   22   90 1    
    47   23   91 1    
    48   23   92 1    
    49   23   93 1    
    50   24   25 am   BACKBONE|DICT|INTERRES
    51   24   94 1    
    52   25   26 2    
    53   25   27 1    
    54   27   28 1    
    55   27   29 1    
    56   27   95 1    
    57   28   96 1    
    58   28   97 1    
    59   28   98 1    
    60   29   30 am   BACKBONE|DICT|INTERRES
    61   29   99 1    
    62   30   31 2    
    63   30   32 1    
    64   32   33 1    
    65   32   34 1    
    66   32  100 1    
    67   33  101 1    
    68   33  102 1    
    69   33  103 1    
    70   34   35 am   BACKBONE|DICT|INTERRES
    71   34  104 1    
    72   35   36 2    
    73   37   38 2    
    74   37   39 am   BACKBONE|DICT|INTERRES
    75   39   40 1    
    76   39  105 1    
    77   40   41 1    
    78   40   42 1    
    79   40  106 1    
    80   41  107 1    
    81   41  108 1    
    82   41  109 1    
    83   42   43 2    
    84   42   44 am   BACKBONE|DICT|INTERRES
    85   44   45 1    
    86   44  110 1    
    87   45   46 1    
    88   45   47 1    
    89   45  111 1    
    90   46  112 1    
    91   46  113 1    
    92   46  114 1    
    93   47   48 2    
    94   47   49 am   BACKBONE|DICT|INTERRES
    95   49   50 1    
    96   49  115 1    
    97   50   51 1    
    98   50   52 1    
    99   50  116 1    
   100   51  117 1    
   101   51  118 1    
   102   51  119 1    
   103   52   53 2    
   104   52   54 am   BACKBONE|DICT|INTERRES
   105   54   55 1    
   106   54  120 1    
   107   55   56 1    
   108   55   57 1    
   109   55  121 1    
   110   56  122 1    
   111   56  123 1    
   112   56  124 1    
   113   57   58 2    
   114   57   59 am   BACKBONE|DICT|INTERRES
   115   59   60 1    
   116   59  125 1    
   117   60   61 1    
   118   60   62 1    
   119   60  126 1    
   120   61  127 1    
   121   61  128 1    
   122   61  129 1    
   123   62   63 2    
   124   62   64 am   BACKBONE|DICT|INTERRES
   125   64   65 1    
   126   64  130 1    
   127   65   66 1    
   128   65   69 1    
   129   65  131 1    
   130   66   67 am   BACKBONE|DICT|INTERRES
   131   66   68 2    
   132   67  132 1    
   133   67  133 1    
   134   69   70 1    
   135   69  134 1    
   136   69  135 1    
   137   70   71 1    
   138   71  136 1    
   139   71  137 1    
@<TRIPOS>SUBSTRUCTURE
     1 UNK         1 GROUP             0       ****    0 ROOT    
