@<TRIPOS>MOLECULE
3R136
137   139    1
SMALL
USER_CHARGES


@<TRIPOS>ATOM
      1 CA         28.3427   25.7655    3.1226 C.3       0 UNK        -0.1979 
      2 C          28.6067   24.2691    3.1517 C.2       0 UNK         0.4864 
      3 O          27.8778   23.5405    3.8265 O.2       0 UNK        -0.5359 
      4 N          29.6246   23.7950    2.4145 N.am      1 UNK        -0.4318 
      5 CA         29.9130   22.3627    2.2438 C.3       1 UNK         0.0824 
      6 C6         31.3602   22.0935    1.7583 C.3       12 UNK        -0.0944 
      7 S7         31.7415   22.6640    0.0637 S.3       12 UNK        -0.2672 
      8 C8         32.9884   23.9577    0.3559 C.3       12 UNK         0.0333 
      9 C9         32.3309   25.2793    0.7146 C.ar      12 UNK        -0.0807 
     10 C10        32.2719   25.7115    2.0424 C.ar      12 UNK        -0.0894 
     11 C11        31.6325   26.9143    2.3721 C.ar      12 UNK        -0.0804 
     12 C12        31.0798   27.6907    1.3485 C.ar      12 UNK        -0.0824 
     13 C13        31.1497   27.2787    0.0149 C.ar      12 UNK        -0.0762 
     14 C14        31.7800   26.0718   -0.2948 C.ar      12 UNK        -0.0782 
     15 C15        30.5670   28.1542   -1.0873 C.3       12 UNK         0.0230 
     16 S16        29.4172   27.2740   -2.1980 S.3       12 UNK        -0.2608 
     17 C17        28.1483   26.6105   -1.0672 C.3       12 UNK        -0.0989 
     18 CA         26.8770   27.5030   -0.9967 C.3       5 UNK         0.0716 
     19 N          25.6609   26.6953   -1.0968 N.am      5 UNK        -0.4135 
     20 C          24.5129   27.1094   -1.6500 C.2       4 UNK         0.5031 
     21 O          24.3526   28.2389   -2.1160 O.2       4 UNK        -0.5229 
     22 CA         23.3501   26.1013   -1.7476 C.3       4 UNK         0.0329 
     23 CB         23.1699   25.6343   -3.2020 C.3       4 UNK        -0.2001 
     24 N          23.5204   24.9236   -0.8950 N.am      4 UNK        -0.4303 
     25 C          23.2709   24.8946    0.4203 C.2       3 UNK         0.5044 
     26 O          22.8021   25.8442    1.0485 O.2       3 UNK        -0.5152 
     27 CA         23.6021   23.5883    1.1684 C.3       3 UNK         0.0319 
     28 CB         22.3331   22.7383    1.3444 C.3       3 UNK        -0.2001 
     29 N          24.6554   22.7592    0.5628 N.am      3 UNK        -0.4354 
     30 C          25.9157   23.1553    0.3409 C.2       2 UNK         0.4964 
     31 O          26.3055   24.3181    0.4766 O.2       2 UNK        -0.5047 
     32 CA         26.9113   22.0891   -0.1299 C.3       2 UNK         0.0288 
     33 CB         27.0769   22.1379   -1.6575 C.3       2 UNK        -0.2113 
     34 N          28.1817   22.4129    0.5061 N.am      2 UNK        -0.4145 
     35 C          28.8425   21.6487    1.3843 C.2       1 UNK         0.5006 
     36 O          28.6079   20.4529    1.5701 O.2       1 UNK        -0.5103 
     37 C          26.8536   28.3401    0.2960 C.2       5 UNK         0.5055 
     38 O          26.3078   27.8971    1.3090 O.2       5 UNK        -0.5220 
     39 N          27.4957   29.5105    0.2547 N.am      6 UNK        -0.4450 
     40 CA         27.7729   30.3644    1.4047 C.3       6 UNK         0.0367 
     41 CB         26.5768   31.2894    1.6896 C.3       6 UNK        -0.1929 
     42 C          29.0358   31.1681    1.0834 C.2       6 UNK         0.5070 
     43 O          29.1937   31.6063   -0.0585 O.2       6 UNK        -0.5237 
     44 N          29.9129   31.3355    2.0762 N.am      7 UNK        -0.4739 
     45 CA         31.1733   32.0689    1.9824 C.3       7 UNK         0.0276 
     46 CB         32.2254   31.2450    1.2113 C.3       7 UNK        -0.1927 
     47 C          31.6644   32.3614    3.4036 C.2       7 UNK         0.5013 
     48 O          31.3586   31.5911    4.3164 O.2       7 UNK        -0.5193 
     49 N          32.4337   33.4458    3.5581 N.am      8 UNK        -0.4253 
     50 CA         33.0651   33.8393    4.8237 C.3       8 UNK         0.0242 
     51 CB         33.0936   35.3751    4.9085 C.3       8 UNK        -0.2000 
     52 C          34.4880   33.2709    4.9848 C.2       8 UNK         0.4948 
     53 O          35.0211   33.2930    6.0943 O.2       8 UNK        -0.5275 
     54 N          35.0882   32.7905    3.8861 N.am      9 UNK        -0.4246 
     55 CA         36.4612   32.2761    3.8249 C.3       9 UNK         0.0261 
     56 CB         36.9437   32.3455    2.3652 C.3       9 UNK        -0.1959 
     57 C          36.6306   30.8475    4.3790 C.2       9 UNK         0.5033 
     58 O          37.7661   30.3830    4.4948 O.2       9 UNK        -0.5390 
     59 N          35.5226   30.1692    4.6907 N.am      10 UNK        -0.4215 
     60 CA         35.4615   28.8066    5.2091 C.3       10 UNK         0.0240 
     61 CB         35.4853   27.8088    4.0320 C.3       10 UNK        -0.1982 
     62 C          34.1944   28.6660    6.0639 C.2       10 UNK         0.4970 
     63 O          33.4266   29.6247    6.1757 O.2       10 UNK        -0.4916 
     64 N          33.9922   27.4706    6.6317 N.am      11 UNK        -0.4279 
     65 CA         32.8103   27.0771    7.4239 C.3       11 UNK         0.1003 
     66 C          32.6874   27.7815    8.8108 C.2       11 UNK         0.5709 
     67 N          33.7356   28.4120    9.3279 N.am      11 UNK        -0.7358 
     68 O          31.6391   27.7269    9.4502 O.2       11 UNK        -0.4999 
     69 C69        31.4804   27.1196    6.6106 C.3       12 UNK        -0.0954 
     70 S70        31.5381   26.1185    5.0857 S.3       12 UNK        -0.2268 
     71 C71        31.5389   27.4247    3.8096 C.3       12 UNK         0.0203 
     72 H72        28.6340   26.2220    4.0676 H         1 UNK         0.0888 
     73 H73        28.8816   26.2573    2.3165 H         1 UNK         0.0888 
     74 H74        27.2798   25.9504    2.9678 H         1 UNK         0.0888 
     75 H75        30.2240   24.4305    1.9039 H         1 UNK         0.3017 
     76 H76        29.8388   21.9117    3.2361 H         1 UNK         0.0873 
     77 H77        31.5633   21.0216    1.7952 H         1 UNK         0.0745 
     78 H78        32.0645   22.5402    2.4615 H         1 UNK         0.0745 
     79 H79        33.5797   24.0842   -0.5523 H         1 UNK         0.0705 
     80 H80        33.6893   23.6410    1.1298 H         1 UNK         0.0705 
     81 H81        32.7194   25.1023    2.8152 H         1 UNK         0.1334 
     82 H82        30.5972   28.6254    1.5938 H         1 UNK         0.1417 
     83 H83        31.8338   25.7435   -1.3243 H         1 UNK         0.1562 
     84 H84        31.3893   28.5501   -1.6846 H         1 UNK         0.0748 
     85 H85        30.0596   29.0207   -0.6682 H         1 UNK         0.0748 
     86 H86        28.5732   26.4038   -0.0838 H         1 UNK         0.0940 
     87 H87        27.8962   25.6258   -1.4644 H         1 UNK         0.0940 
     88 H88        26.8836   28.1949   -1.8421 H         1 UNK         0.0703 
     89 H89        25.6961   25.7942   -0.6298 H         1 UNK         0.3081 
     90 H90        22.4404   26.6248   -1.4453 H         1 UNK         0.0719 
     91 H91        23.0014   26.4825   -3.8672 H         1 UNK         0.0809 
     92 H92        24.0496   25.1035   -3.5684 H         1 UNK         0.0809 
     93 H93        22.3101   24.9717   -3.3029 H         1 UNK         0.0809 
     94 H94        23.8968   24.0929   -1.3282 H         1 UNK         0.2990 
     95 H95        23.9562   23.8770    2.1604 H         1 UNK         0.0690 
     96 H96        22.5197   21.8702    1.9770 H         1 UNK         0.0788 
     97 H97        21.9501   22.3823    0.3871 H         1 UNK         0.0788 
     98 H98        21.5379   23.3155    1.8190 H         1 UNK         0.0788 
     99 H99        24.4168   21.7919    0.3945 H         1 UNK         0.2993 
    100 H100       26.5625   21.0997    0.1743 H         1 UNK         0.0949 
    101 H101       27.3922   23.1242   -2.0011 H         1 UNK         0.0767 
    102 H102       27.8202   21.4153   -1.9950 H         1 UNK         0.0767 
    103 H103       26.1393   21.8988   -2.1608 H         1 UNK         0.0767 
    104 H104       28.4146   23.3962    0.4839 H         1 UNK         0.3013 
    105 H105       27.9346   29.8210   -0.6040 H         1 UNK         0.3121 
    106 H106       27.9653   29.7390    2.2798 H         1 UNK         0.0774 
    107 H107       26.7822   31.9428    2.5384 H         1 UNK         0.0815 
    108 H108       26.3476   31.9254    0.8337 H         1 UNK         0.0815 
    109 H109       25.6809   30.7168    1.9306 H         1 UNK         0.0815 
    110 H110       29.7157   30.9828    3.0060 H         1 UNK         0.2987 
    111 H111       30.9922   33.0145    1.4662 H         1 UNK         0.0949 
    112 H112       31.8861   30.9947    0.2062 H         1 UNK         0.0806 
    113 H113       33.1565   31.8017    1.1022 H         1 UNK         0.0806 
    114 H114       32.4635   30.3129    1.7253 H         1 UNK         0.0806 
    115 H115       32.6126   34.0386    2.7591 H         1 UNK         0.3010 
    116 H116       32.4712   33.4663    5.6615 H         1 UNK         0.0829 
    117 H117       33.6862   35.8153    4.1055 H         1 UNK         0.0813 
    118 H118       33.5283   35.7064    5.8528 H         1 UNK         0.0813 
    119 H119       32.0885   35.7939    4.8534 H         1 UNK         0.0813 
    120 H120       34.5758   32.8065    3.0175 H         1 UNK         0.3038 
    121 H121       37.0997   32.9286    4.4245 H         1 UNK         0.0769 
    122 H122       36.8980   33.3640    1.9788 H         1 UNK         0.0811 
    123 H123       36.3460   31.7090    1.7114 H         1 UNK         0.0811 
    124 H124       37.9805   32.0171    2.2789 H         1 UNK         0.0811 
    125 H125       34.6290   30.6452    4.6712 H         1 UNK         0.3204 
    126 H126       36.3193   28.6261    5.8604 H         1 UNK         0.0748 
    127 H127       35.4272   26.7756    4.3754 H         1 UNK         0.0771 
    128 H128       34.6541   27.9727    3.3456 H         1 UNK         0.0771 
    129 H129       36.4077   27.9006    3.4583 H         1 UNK         0.0771 
    130 H130       34.6831   26.7462    6.5014 H         1 UNK         0.2980 
    131 H131       32.9842   26.0312    7.6785 H         1 UNK         0.0545 
    132 H132       33.6497   28.8532   10.2299 H         1 UNK         0.3459 
    133 H133       34.6061   28.4565    8.8239 H         1 UNK         0.3459 
    134 H134       31.2054   28.1477    6.3701 H         1 UNK         0.0616 
    135 H135       30.6583   26.7258    7.2105 H         1 UNK         0.0616 
    136 H136       32.3670   28.1084    3.9844 H         1 UNK         0.0634 
    137 H137       30.6271   28.0116    3.9316 H         1 UNK         0.0634 
@<TRIPOS>BOND
     1    1    2 1    
     2    1   72 1    
     3    1   73 1    
     4    1   74 1    
     5    2    3 2    
     6    2    4 am   BACKBONE|DICT|INTERRES
     7    4    5 1    
     8    4   75 1    
     9    5    6 1    
    10    5   35 1    
    11    5   76 1    
    12    6    7 1    
    13    6   77 1    
    14    6   78 1    
    15    7    8 1    
    16    8    9 1    
    17    8   79 1    
    18    8   80 1    
    19    9   10 ar   
    20    9   14 ar   
    21   10   11 ar   
    22   10   81 1    
    23   11   12 ar   
    24   11   71 1    
    25   12   13 ar   
    26   12   82 1    
    27   13   14 ar   
    28   13   15 1    
    29   14   83 1    
    30   15   16 1    
    31   15   84 1    
    32   15   85 1    
    33   16   17 1    
    34   17   18 1    
    35   17   86 1    
    36   17   87 1    
    37   18   19 1    
    38   18   37 1    
    39   18   88 1    
    40   19   20 am   BACKBONE|DICT|INTERRES
    41   19   89 1    
    42   20   21 2    
    43   20   22 1    
    44   22   23 1    
    45   22   24 1    
    46   22   90 1    
    47   23   91 1    
    48   23   92 1    
    49   23   93 1    
    50   24   25 am   BACKBONE|DICT|INTERRES
    51   24   94 1    
    52   25   26 2    
    53   25   27 1    
    54   27   28 1    
    55   27   29 1    
    56   27   95 1    
    57   28   96 1    
    58   28   97 1    
    59   28   98 1    
    60   29   30 am   BACKBONE|DICT|INTERRES
    61   29   99 1    
    62   30   31 2    
    63   30   32 1    
    64   32   33 1    
    65   32   34 1    
    66   32  100 1    
    67   33  101 1    
    68   33  102 1    
    69   33  103 1    
    70   34   35 am   BACKBONE|DICT|INTERRES
    71   34  104 1    
    72   35   36 2    
    73   37   38 2    
    74   37   39 am   BACKBONE|DICT|INTERRES
    75   39   40 1    
    76   39  105 1    
    77   40   41 1    
    78   40   42 1    
    79   40  106 1    
    80   41  107 1    
    81   41  108 1    
    82   41  109 1    
    83   42   43 2    
    84   42   44 am   BACKBONE|DICT|INTERRES
    85   44   45 1    
    86   44  110 1    
    87   45   46 1    
    88   45   47 1    
    89   45  111 1    
    90   46  112 1    
    91   46  113 1    
    92   46  114 1    
    93   47   48 2    
    94   47   49 am   BACKBONE|DICT|INTERRES
    95   49   50 1    
    96   49  115 1    
    97   50   51 1    
    98   50   52 1    
    99   50  116 1    
   100   51  117 1    
   101   51  118 1    
   102   51  119 1    
   103   52   53 2    
   104   52   54 am   BACKBONE|DICT|INTERRES
   105   54   55 1    
   106   54  120 1    
   107   55   56 1    
   108   55   57 1    
   109   55  121 1    
   110   56  122 1    
   111   56  123 1    
   112   56  124 1    
   113   57   58 2    
   114   57   59 am   BACKBONE|DICT|INTERRES
   115   59   60 1    
   116   59  125 1    
   117   60   61 1    
   118   60   62 1    
   119   60  126 1    
   120   61  127 1    
   121   61  128 1    
   122   61  129 1    
   123   62   63 2    
   124   62   64 am   BACKBONE|DICT|INTERRES
   125   64   65 1    
   126   64  130 1    
   127   65   66 1    
   128   65   69 1    
   129   65  131 1    
   130   66   67 am   BACKBONE|DICT|INTERRES
   131   66   68 2    
   132   67  132 1    
   133   67  133 1    
   134   69   70 1    
   135   69  134 1    
   136   69  135 1    
   137   70   71 1    
   138   71  136 1    
   139   71  137 1    
@<TRIPOS>SUBSTRUCTURE
     1 UNK         1 GROUP             0       ****    0 ROOT    
