@<TRIPOS>MOLECULE
3R136
137   139    1
SMALL
USER_CHARGES


@<TRIPOS>ATOM
      1 CA         29.6989   24.4955    3.5771 C.3       0 UNK        -0.1979 
      2 C          29.3731   23.0345    3.3244 C.2       0 UNK         0.4864 
      3 O          29.3432   22.2375    4.2631 O.2       0 UNK        -0.5359 
      4 N          29.1311   22.6827    2.0612 N.am      1 UNK        -0.4318 
      5 CA         28.7324   21.3569    1.6087 C.3       1 UNK         0.0824 
      6 C6         29.9360   20.4134    1.3426 C.3       12 UNK        -0.0944 
      7 S7         31.1019   20.9311    0.0313 S.3       12 UNK        -0.2672 
      8 C8         32.2317   22.0666    0.9201 C.3       12 UNK         0.0333 
      9 C9         32.1091   23.5518    0.5585 C.ar      12 UNK        -0.0807 
     10 C10        32.9796   24.4592    1.1773 C.ar      12 UNK        -0.0894 
     11 C11        32.9399   25.8227    0.8643 C.ar      12 UNK        -0.0804 
     12 C12        32.0356   26.2735   -0.0969 C.ar      12 UNK        -0.0824 
     13 C13        31.1137   25.3995   -0.6740 C.ar      12 UNK        -0.0762 
     14 C14        31.1652   24.0402   -0.3582 C.ar      12 UNK        -0.0782 
     15 C15        30.0352   25.9399   -1.6022 C.3       12 UNK         0.0230 
     16 S16        28.5434   26.4377   -0.6750 S.3       12 UNK        -0.2608 
     17 C17        29.2256   27.7140    0.4371 C.3       12 UNK        -0.0989 
     18 CA         28.1572   28.5114    1.2146 C.3       5 UNK         0.0716 
     19 N          27.3162   27.6278    2.0232 N.am      5 UNK        -0.4135 
     20 C          26.2315   27.9893    2.7167 C.2       4 UNK         0.5031 
     21 O          25.8063   29.1447    2.7815 O.2       4 UNK        -0.5229 
     22 CA         25.4561   26.8403    3.3897 C.3       4 UNK         0.0329 
     23 CB         24.4011   27.3445    4.3922 C.3       4 UNK        -0.2001 
     24 N          24.7960   26.0079    2.3797 N.am      4 UNK        -0.4303 
     25 C          25.4069   25.0744    1.6398 C.2       3 UNK         0.5044 
     26 O          26.5922   24.7602    1.7842 O.2       3 UNK        -0.5152 
     27 CA         24.5626   24.4173    0.5388 C.3       3 UNK         0.0319 
     28 CB         24.3783   25.3690   -0.6566 C.3       3 UNK        -0.2001 
     29 N          25.2381   23.2058    0.0899 N.am      3 UNK        -0.4354 
     30 C          24.6650   22.0699   -0.3195 C.2       2 UNK         0.4964 
     31 O          23.4481   21.9338   -0.4520 O.2       2 UNK        -0.5047 
     32 CA         25.5862   20.8614   -0.5981 C.3       2 UNK         0.0288 
     33 CB         26.0107   20.8110   -2.0799 C.3       2 UNK        -0.2113 
     34 N          26.7418   20.7533    0.3117 N.am      2 UNK        -0.4145 
     35 C          27.8030   21.5684    0.4045 C.2       1 UNK         0.5006 
     36 O          28.0150   22.5101   -0.3645 O.2       1 UNK        -0.5103 
     37 C          28.8498   29.6073    2.0526 C.2       5 UNK         0.5055 
     38 O          29.2592   29.3590    3.1909 O.2       5 UNK        -0.5220 
     39 N          29.0290   30.7783    1.4303 N.am      6 UNK        -0.4450 
     40 CA         29.6967   31.9512    1.9995 C.3       6 UNK         0.0367 
     41 CB         28.7168   33.1388    1.9748 C.3       6 UNK        -0.1929 
     42 C          31.0092   32.2785    1.2621 C.2       6 UNK         0.5070 
     43 O          31.4640   33.4216    1.3144 O.2       6 UNK        -0.5237 
     44 N          31.6035   31.2852    0.5818 N.am      7 UNK        -0.4739 
     45 CA         32.8290   31.4319   -0.2171 C.3       7 UNK         0.0276 
     46 CB         33.0920   30.1365   -1.0012 C.3       7 UNK        -0.1927 
     47 C          34.0653   31.8215    0.6135 C.2       7 UNK         0.5013 
     48 O          34.9112   32.5715    0.1260 O.2       7 UNK        -0.5193 
     49 N          34.1189   31.3377    1.8597 N.am      8 UNK        -0.4253 
     50 CA         35.1016   31.7069    2.8777 C.3       8 UNK         0.0242 
     51 CB         35.8187   30.4339    3.3672 C.3       8 UNK        -0.2000 
     52 C          34.3866   32.4581    4.0134 C.2       8 UNK         0.4948 
     53 O          34.5462   32.1036    5.1824 O.2       8 UNK        -0.5275 
     54 N          33.5478   33.4399    3.6455 N.am      9 UNK        -0.4246 
     55 CA         32.6370   34.2447    4.4780 C.3       9 UNK         0.0261 
     56 CB         33.3889   35.0298    5.5708 C.3       9 UNK        -0.1959 
     57 C          31.4614   33.4423    5.0664 C.2       9 UNK         0.5033 
     58 O          30.3207   33.8981    4.9877 O.2       9 UNK        -0.5390 
     59 N          31.7507   32.2560    5.6042 N.am      10 UNK        -0.4215 
     60 CA         30.8052   31.2494    6.0654 C.3       10 UNK         0.0240 
     61 CB         30.2104   31.6403    7.4327 C.3       10 UNK        -0.1982 
     62 C          31.5796   29.9317    6.1289 C.2       10 UNK         0.4970 
     63 O          32.3961   29.7604    7.0362 O.2       10 UNK        -0.4916 
     64 N          31.3501   29.0454    5.1539 N.am      11 UNK        -0.4279 
     65 CA         32.0049   27.7286    5.0821 C.3       11 UNK         0.1003 
     66 C          31.4704   26.6971    6.1186 C.2       11 UNK         0.5709 
     67 N          30.3115   26.9073    6.7325 N.am      11 UNK        -0.7358 
     68 O          32.1253   25.6895    6.3730 O.2       11 UNK        -0.4999 
     69 C69        31.9527   27.1433    3.6499 C.3       12 UNK        -0.0954 
     70 S70        32.8917   28.1253    2.4356 S.3       12 UNK        -0.2268 
     71 C71        33.8456   26.8215    1.5782 C.3       12 UNK         0.0203 
     72 H72        28.8894   24.9758    4.1260 H         1 UNK         0.0888 
     73 H73        30.6087   24.5660    4.1702 H         1 UNK         0.0888 
     74 H74        29.8529   25.0379    2.6439 H         1 UNK         0.0888 
     75 H75        29.1081   23.3807    1.3269 H         1 UNK         0.3017 
     76 H76        28.1270   20.9061    2.3985 H         1 UNK         0.0873 
     77 H77        29.5636   19.4240    1.0718 H         1 UNK         0.0745 
     78 H78        30.4929   20.2612    2.2683 H         1 UNK         0.0745 
     79 H79        33.2526   21.7473    0.7060 H         1 UNK         0.0705 
     80 H80        32.0987   21.9524    1.9965 H         1 UNK         0.0705 
     81 H81        33.6908   24.1008    1.9092 H         1 UNK         0.1334 
     82 H82        32.0034   27.3243   -0.3442 H         1 UNK         0.1417 
     83 H83        30.4531   23.3772   -0.8280 H         1 UNK         0.1562 
     84 H84        29.7582   25.1814   -2.3360 H         1 UNK         0.0748 
     85 H85        30.4131   26.7917   -2.1698 H         1 UNK         0.0748 
     86 H86        29.8395   28.3856   -0.1658 H         1 UNK         0.0940 
     87 H87        29.8944   27.2253    1.1467 H         1 UNK         0.0940 
     88 H88        27.4979   28.9995    0.4935 H         1 UNK         0.0703 
     89 H89        27.5244   26.6377    1.9630 H         1 UNK         0.3081 
     90 H90        26.1761   26.2328    3.9430 H         1 UNK         0.0719 
     91 H91        24.8612   27.9669    5.1609 H         1 UNK         0.0809 
     92 H92        23.6306   27.9439    3.9054 H         1 UNK         0.0809 
     93 H93        23.9092   26.5149    4.9003 H         1 UNK         0.0809 
     94 H94        23.8316   26.2304    2.1780 H         1 UNK         0.2990 
     95 H95        23.5891   24.1605    0.9619 H         1 UNK         0.0690 
     96 H96        23.7840   24.9049   -1.4439 H         1 UNK         0.0788 
     97 H97        25.3377   25.6581   -1.0887 H         1 UNK         0.0788 
     98 H98        23.8639   26.2838   -0.3604 H         1 UNK         0.0788 
     99 H99        26.2520   23.2362    0.1640 H         1 UNK         0.2993 
    100 H100       24.9840   19.9717   -0.4060 H         1 UNK         0.0949 
    101 H101       25.1368   20.7512   -2.7299 H         1 UNK         0.0767 
    102 H102       26.5710   21.6977   -2.3776 H         1 UNK         0.0767 
    103 H103       26.6291   19.9375   -2.2861 H         1 UNK         0.0767 
    104 H104       26.6532   20.0265    1.0092 H         1 UNK         0.3013 
    105 H105       28.6860   30.8849    0.4849 H         1 UNK         0.3121 
    106 H106       29.9681   31.7636    3.0386 H         1 UNK         0.0774 
    107 H107       29.1526   34.0194    2.4488 H         1 UNK         0.0815 
    108 H108       28.4434   33.4170    0.9565 H         1 UNK         0.0815 
    109 H109       27.8011   32.9056    2.5183 H         1 UNK         0.0815 
    110 H110       31.1803   30.3700    0.6054 H         1 UNK         0.2987 
    111 H111       32.6560   32.2357   -0.9363 H         1 UNK         0.0949 
    112 H112       32.2386   29.8622   -1.6215 H         1 UNK         0.0806 
    113 H113       33.3131   29.3012   -0.3377 H         1 UNK         0.0806 
    114 H114       33.9489   30.2540   -1.6660 H         1 UNK         0.0806 
    115 H115       33.3742   30.7233    2.1600 H         1 UNK         0.3010 
    116 H116       35.8519   32.3854    2.4664 H         1 UNK         0.0829 
    117 H117       35.1287   29.7410    3.8504 H         1 UNK         0.0813 
    118 H118       36.2975   29.9070    2.5418 H         1 UNK         0.0813 
    119 H119       36.5969   30.6778    4.0914 H         1 UNK         0.0813 
    120 H120       33.4380   33.5969    2.6510 H         1 UNK         0.3038 
    121 H121       32.1988   34.9764    3.7969 H         1 UNK         0.0769 
    122 H122       32.7113   35.7029    6.0975 H         1 UNK         0.0811 
    123 H123       34.1846   35.6401    5.1436 H         1 UNK         0.0811 
    124 H124       33.8341   34.3731    6.3185 H         1 UNK         0.0811 
    125 H125       32.7341   31.9863    5.6360 H         1 UNK         0.3204 
    126 H126       29.9930   31.1545    5.3421 H         1 UNK         0.0748 
    127 H127       29.5534   30.8557    7.8098 H         1 UNK         0.0771 
    128 H128       30.9876   31.8053    8.1800 H         1 UNK         0.0771 
    129 H129       29.6174   32.5522    7.3624 H         1 UNK         0.0771 
    130 H130       30.6454   29.2326    4.4432 H         1 UNK         0.2980 
    131 H131       33.0586   27.8722    5.3300 H         1 UNK         0.0545 
    132 H132       29.7653   27.7279    6.5276 H         1 UNK         0.3459 
    133 H133       29.9818   26.2348    7.4063 H         1 UNK         0.3459 
    134 H134       32.3484   26.1266    3.6433 H         1 UNK         0.0616 
    135 H135       30.9203   27.0766    3.3075 H         1 UNK         0.0616 
    136 H136       34.4894   26.3190    2.3017 H         1 UNK         0.0634 
    137 H137       34.5065   27.2898    0.8478 H         1 UNK         0.0634 
@<TRIPOS>BOND
     1    1    2 1    
     2    1   72 1    
     3    1   73 1    
     4    1   74 1    
     5    2    3 2    
     6    2    4 am   BACKBONE|DICT|INTERRES
     7    4    5 1    
     8    4   75 1    
     9    5    6 1    
    10    5   35 1    
    11    5   76 1    
    12    6    7 1    
    13    6   77 1    
    14    6   78 1    
    15    7    8 1    
    16    8    9 1    
    17    8   79 1    
    18    8   80 1    
    19    9   10 ar   
    20    9   14 ar   
    21   10   11 ar   
    22   10   81 1    
    23   11   12 ar   
    24   11   71 1    
    25   12   13 ar   
    26   12   82 1    
    27   13   14 ar   
    28   13   15 1    
    29   14   83 1    
    30   15   16 1    
    31   15   84 1    
    32   15   85 1    
    33   16   17 1    
    34   17   18 1    
    35   17   86 1    
    36   17   87 1    
    37   18   19 1    
    38   18   37 1    
    39   18   88 1    
    40   19   20 am   BACKBONE|DICT|INTERRES
    41   19   89 1    
    42   20   21 2    
    43   20   22 1    
    44   22   23 1    
    45   22   24 1    
    46   22   90 1    
    47   23   91 1    
    48   23   92 1    
    49   23   93 1    
    50   24   25 am   BACKBONE|DICT|INTERRES
    51   24   94 1    
    52   25   26 2    
    53   25   27 1    
    54   27   28 1    
    55   27   29 1    
    56   27   95 1    
    57   28   96 1    
    58   28   97 1    
    59   28   98 1    
    60   29   30 am   BACKBONE|DICT|INTERRES
    61   29   99 1    
    62   30   31 2    
    63   30   32 1    
    64   32   33 1    
    65   32   34 1    
    66   32  100 1    
    67   33  101 1    
    68   33  102 1    
    69   33  103 1    
    70   34   35 am   BACKBONE|DICT|INTERRES
    71   34  104 1    
    72   35   36 2    
    73   37   38 2    
    74   37   39 am   BACKBONE|DICT|INTERRES
    75   39   40 1    
    76   39  105 1    
    77   40   41 1    
    78   40   42 1    
    79   40  106 1    
    80   41  107 1    
    81   41  108 1    
    82   41  109 1    
    83   42   43 2    
    84   42   44 am   BACKBONE|DICT|INTERRES
    85   44   45 1    
    86   44  110 1    
    87   45   46 1    
    88   45   47 1    
    89   45  111 1    
    90   46  112 1    
    91   46  113 1    
    92   46  114 1    
    93   47   48 2    
    94   47   49 am   BACKBONE|DICT|INTERRES
    95   49   50 1    
    96   49  115 1    
    97   50   51 1    
    98   50   52 1    
    99   50  116 1    
   100   51  117 1    
   101   51  118 1    
   102   51  119 1    
   103   52   53 2    
   104   52   54 am   BACKBONE|DICT|INTERRES
   105   54   55 1    
   106   54  120 1    
   107   55   56 1    
   108   55   57 1    
   109   55  121 1    
   110   56  122 1    
   111   56  123 1    
   112   56  124 1    
   113   57   58 2    
   114   57   59 am   BACKBONE|DICT|INTERRES
   115   59   60 1    
   116   59  125 1    
   117   60   61 1    
   118   60   62 1    
   119   60  126 1    
   120   61  127 1    
   121   61  128 1    
   122   61  129 1    
   123   62   63 2    
   124   62   64 am   BACKBONE|DICT|INTERRES
   125   64   65 1    
   126   64  130 1    
   127   65   66 1    
   128   65   69 1    
   129   65  131 1    
   130   66   67 am   BACKBONE|DICT|INTERRES
   131   66   68 2    
   132   67  132 1    
   133   67  133 1    
   134   69   70 1    
   135   69  134 1    
   136   69  135 1    
   137   70   71 1    
   138   71  136 1    
   139   71  137 1    
@<TRIPOS>SUBSTRUCTURE
     1 UNK         1 GROUP             0       ****    0 ROOT    
