@<TRIPOS>MOLECULE
3R136
137   139    1
SMALL
USER_CHARGES


@<TRIPOS>ATOM
      1 CA         27.4475   21.3560   -3.1923 C.3       0 UNK        -0.1979 
      2 C          28.0033   21.3171   -1.7758 C.2       0 UNK         0.4864 
      3 O          27.6816   20.3931   -1.0275 O.2       0 UNK        -0.5359 
      4 N          28.8303   22.3136   -1.4247 N.am      1 UNK        -0.4318 
      5 CA         29.4595   22.5485   -0.1157 C.3       1 UNK         0.0824 
      6 C6         30.3584   21.3724    0.3721 C.3       12 UNK        -0.0944 
      7 S7         31.8411   21.1803   -0.6748 S.3       12 UNK        -0.2672 
      8 C8         33.1400   21.9252    0.3717 C.3       12 UNK         0.0333 
      9 C9         32.7827   23.3394    0.8115 C.ar      12 UNK        -0.0807 
     10 C10        32.5427   23.6220    2.1600 C.ar      12 UNK        -0.0894 
     11 C11        32.1551   24.9049    2.5588 C.ar      12 UNK        -0.0804 
     12 C12        32.0126   25.9105    1.5977 C.ar      12 UNK        -0.0824 
     13 C13        32.2483   25.6378    0.2463 C.ar      12 UNK        -0.0762 
     14 C14        32.6527   24.3567   -0.1375 C.ar      12 UNK        -0.0782 
     15 C15        32.0419   26.7107   -0.8111 C.3       12 UNK         0.0230 
     16 S16        30.3121   26.7482   -1.3824 S.3       12 UNK        -0.2608 
     17 C17        29.5512   27.7946   -0.1005 C.3       12 UNK        -0.0989 
     18 CA         28.0889   28.1723   -0.4358 C.3       5 UNK         0.0716 
     19 N          27.1937   27.0176   -0.4005 N.am      5 UNK        -0.4135 
     20 C          26.1512   26.8284   -1.2206 C.2       4 UNK         0.5031 
     21 O          25.8872   27.5533   -2.1807 O.2       4 UNK        -0.5229 
     22 CA         25.2320   25.6309   -0.9125 C.3       4 UNK         0.0329 
     23 CB         25.6547   24.4052   -1.7360 C.3       4 UNK        -0.2001 
     24 N          25.2113   25.2908    0.5147 N.am      4 UNK        -0.4303 
     25 C          24.6431   26.0680    1.4515 C.2       3 UNK         0.5044 
     26 O          23.9788   27.0699    1.1858 O.2       3 UNK        -0.5152 
     27 CA         24.8576   25.7018    2.9329 C.3       3 UNK         0.0319 
     28 CB         23.5859   25.0665    3.5179 C.3       3 UNK        -0.2001 
     29 N          25.9954   24.8169    3.1962 N.am      3 UNK        -0.4354 
     30 C          27.2818   25.0826    2.9322 C.2       2 UNK         0.4964 
     31 O          27.6734   26.1214    2.3963 O.2       2 UNK        -0.5047 
     32 CA         28.3100   23.9912    3.2784 C.3       2 UNK         0.0288 
     33 CB         27.7338   22.7964    4.0729 C.3       2 UNK        -0.2113 
     34 N          29.0122   23.5115    2.0828 N.am      2 UNK        -0.4145 
     35 C          28.4586   23.0045    0.9692 C.2       1 UNK         0.5006 
     36 O          27.2395   22.9240    0.7903 O.2       1 UNK        -0.5103 
     37 C          27.5638   29.2378    0.5412 C.2       5 UNK         0.5055 
     38 O          27.2881   30.3623    0.1201 O.2       5 UNK        -0.5220 
     39 N          27.4381   28.8558    1.8229 N.am      6 UNK        -0.4450 
     40 CA         26.9959   29.6303    2.9903 C.3       6 UNK         0.0367 
     41 CB         25.5201   30.0536    2.8563 C.3       6 UNK        -0.1929 
     42 C          27.8910   30.8326    3.3443 C.2       6 UNK         0.5070 
     43 O          28.4276   30.8853    4.4504 O.2       6 UNK        -0.5237 
     44 N          28.0362   31.7726    2.4052 N.am      7 UNK        -0.4739 
     45 CA         28.7233   33.0582    2.5596 C.3       7 UNK         0.0276 
     46 CB         27.9763   34.1093    1.7177 C.3       7 UNK        -0.1927 
     47 C          30.2224   33.0068    2.2027 C.2       7 UNK         0.5013 
     48 O          30.8209   34.0573    1.9611 O.2       7 UNK        -0.5193 
     49 N          30.8082   31.8030    2.1618 N.am      8 UNK        -0.4253 
     50 CA         32.2414   31.5762    1.9600 C.3       8 UNK         0.0242 
     51 CB         32.4768   30.0778    1.7113 C.3       8 UNK        -0.2000 
     52 C          33.0748   32.0599    3.1591 C.2       8 UNK         0.4948 
     53 O          32.5618   32.1104    4.2802 O.2       8 UNK        -0.5275 
     54 N          34.3554   32.3679    2.9087 N.am      9 UNK        -0.4246 
     55 CA         35.3358   32.7813    3.9179 C.3       9 UNK         0.0261 
     56 CB         36.6808   33.0793    3.2341 C.3       9 UNK        -0.1959 
     57 C          35.4952   31.7097    5.0092 C.2       9 UNK         0.5033 
     58 O          35.9420   30.6009    4.7057 O.2       9 UNK        -0.5390 
     59 N          35.0513   32.0396    6.2299 N.am      10 UNK        -0.4215 
     60 CA         34.9240   31.1951    7.4279 C.3       10 UNK         0.0240 
     61 CB         36.2901   30.6463    7.8857 C.3       10 UNK        -0.1982 
     62 C          33.8814   30.0637    7.3133 C.2       10 UNK         0.4970 
     63 O          33.1586   29.8228    8.2810 O.2       10 UNK        -0.4916 
     64 N          33.8254   29.3883    6.1603 N.am      11 UNK        -0.4279 
     65 CA         32.9224   28.2659    5.8723 C.3       11 UNK         0.1003 
     66 C          31.4240   28.6560    5.6986 C.2       11 UNK         0.5709 
     67 N          31.0914   29.8917    5.3456 N.am      11 UNK        -0.7358 
     68 O          30.5458   27.8221    5.9012 O.2       11 UNK        -0.4999 
     69 C69        33.4518   27.4184    4.6784 C.3       12 UNK        -0.0954 
     70 S70        33.3224   25.6247    4.9772 S.3       12 UNK        -0.2268 
     71 C71        31.8412   25.1819    4.0215 C.3       12 UNK         0.0203 
     72 H72        26.3593   21.4066   -3.1654 H         1 UNK         0.0888 
     73 H73        27.8119   22.2173   -3.7521 H         1 UNK         0.0888 
     74 H74        27.7344   20.4545   -3.7331 H         1 UNK         0.0888 
     75 H75        29.0338   23.0251   -2.1119 H         1 UNK         0.3017 
     76 H76        30.0970   23.4174   -0.2770 H         1 UNK         0.0873 
     77 H77        29.8113   20.4297    0.3764 H         1 UNK         0.0745 
     78 H78        30.6846   21.5108    1.4036 H         1 UNK         0.0745 
     79 H79        34.0772   21.9471   -0.1861 H         1 UNK         0.0705 
     80 H80        33.3114   21.2807    1.2354 H         1 UNK         0.0705 
     81 H81        32.6413   22.8394    2.9005 H         1 UNK         0.1334 
     82 H82        31.6989   26.8998    1.8982 H         1 UNK         0.1417 
     83 H83        32.8250   24.1362   -1.1826 H         1 UNK         0.1562 
     84 H84        32.6870   26.5148   -1.6690 H         1 UNK         0.0748 
     85 H85        32.3403   27.6876   -0.4300 H         1 UNK         0.0748 
     86 H86        30.1554   28.6976   -0.0066 H         1 UNK         0.0940 
     87 H87        29.6099   27.2759    0.8571 H         1 UNK         0.0940 
     88 H88        28.0793   28.6140   -1.4350 H         1 UNK         0.0703 
     89 H89        27.3066   26.3949    0.3902 H         1 UNK         0.3081 
     90 H90        24.2172   25.9042   -1.2101 H         1 UNK         0.0719 
     91 H91        25.5611   24.6038   -2.8044 H         1 UNK         0.0809 
     92 H92        26.6935   24.1385   -1.5471 H         1 UNK         0.0809 
     93 H93        25.0365   23.5362   -1.5102 H         1 UNK         0.0809 
     94 H94        25.7379   24.4716    0.8003 H         1 UNK         0.2990 
     95 H95        25.0472   26.6366    3.4647 H         1 UNK         0.0690 
     96 H96        23.6824   24.8978    4.5907 H         1 UNK         0.0788 
     97 H97        23.3588   24.1103    3.0448 H         1 UNK         0.0788 
     98 H98        22.7211   25.7157    3.3719 H         1 UNK         0.0788 
     99 H99        25.7781   23.9181    3.6021 H         1 UNK         0.2993 
    100 H100       29.0506   24.4793    3.9111 H         1 UNK         0.0949 
    101 H101       27.2622   23.1252    5.0002 H         1 UNK         0.0767 
    102 H102       26.9953   22.2340    3.4998 H         1 UNK         0.0767 
    103 H103       28.5252   22.1006    4.3525 H         1 UNK         0.0767 
    104 H104       30.0183   23.6077    2.1071 H         1 UNK         0.3013 
    105 H105       27.6726   27.8883    2.0426 H         1 UNK         0.3121 
    106 H106       27.0573   28.9410    3.8345 H         1 UNK         0.0774 
    107 H107       24.8712   29.1878    2.7278 H         1 UNK         0.0815 
    108 H108       25.1832   30.5799    3.7503 H         1 UNK         0.0815 
    109 H109       25.3575   30.7189    2.0080 H         1 UNK         0.0815 
    110 H110       27.6322   31.5733    1.4920 H         1 UNK         0.2987 
    111 H111       28.6657   33.3648    3.6064 H         1 UNK         0.0949 
    112 H112       26.9237   34.1648    1.9961 H         1 UNK         0.0806 
    113 H113       28.3973   35.1053    1.8621 H         1 UNK         0.0806 
    114 H114       28.0301   33.8820    0.6523 H         1 UNK         0.0806 
    115 H115       30.2491   31.0065    2.4262 H         1 UNK         0.3010 
    116 H116       32.5565   32.1352    1.0761 H         1 UNK         0.0829 
    117 H117       33.5408   29.8407    1.6648 H         1 UNK         0.0813 
    118 H118       32.0388   29.4661    2.4998 H         1 UNK         0.0813 
    119 H119       32.0415   29.7715    0.7622 H         1 UNK         0.0813 
    120 H120       34.7023   32.2649    1.9661 H         1 UNK         0.3038 
    121 H121       34.9741   33.7057    4.3733 H         1 UNK         0.0769 
    122 H122       37.4267   33.3962    3.9642 H         1 UNK         0.0811 
    123 H123       36.5860   33.8806    2.5010 H         1 UNK         0.0811 
    124 H124       37.0788   32.2013    2.7234 H         1 UNK         0.0811 
    125 H125       34.6468   32.9611    6.3297 H         1 UNK         0.3204 
    126 H126       34.5650   31.8623    8.2133 H         1 UNK         0.0748 
    127 H127       36.1965   30.1147    8.8336 H         1 UNK         0.0771 
    128 H128       36.7138   29.9464    7.1648 H         1 UNK         0.0771 
    129 H129       37.0104   31.4506    8.0352 H         1 UNK         0.0771 
    130 H130       34.4814   29.6549    5.4316 H         1 UNK         0.2980 
    131 H131       32.9552   27.6397    6.7663 H         1 UNK         0.0545 
    132 H132       31.7917   30.6015    5.1543 H         1 UNK         0.3459 
    133 H133       30.1126   30.1292    5.2334 H         1 UNK         0.3459 
    134 H134       32.9673   27.6855    3.7398 H         1 UNK         0.0616 
    135 H135       34.5130   27.6133    4.5138 H         1 UNK         0.0616 
    136 H136       31.4025   24.2918    4.4745 H         1 UNK         0.0634 
    137 H137       31.0889   25.9662    4.1075 H         1 UNK         0.0634 
@<TRIPOS>BOND
     1    1    2 1    
     2    1   72 1    
     3    1   73 1    
     4    1   74 1    
     5    2    3 2    
     6    2    4 am   BACKBONE|DICT|INTERRES
     7    4    5 1    
     8    4   75 1    
     9    5    6 1    
    10    5   35 1    
    11    5   76 1    
    12    6    7 1    
    13    6   77 1    
    14    6   78 1    
    15    7    8 1    
    16    8    9 1    
    17    8   79 1    
    18    8   80 1    
    19    9   10 ar   
    20    9   14 ar   
    21   10   11 ar   
    22   10   81 1    
    23   11   12 ar   
    24   11   71 1    
    25   12   13 ar   
    26   12   82 1    
    27   13   14 ar   
    28   13   15 1    
    29   14   83 1    
    30   15   16 1    
    31   15   84 1    
    32   15   85 1    
    33   16   17 1    
    34   17   18 1    
    35   17   86 1    
    36   17   87 1    
    37   18   19 1    
    38   18   37 1    
    39   18   88 1    
    40   19   20 am   BACKBONE|DICT|INTERRES
    41   19   89 1    
    42   20   21 2    
    43   20   22 1    
    44   22   23 1    
    45   22   24 1    
    46   22   90 1    
    47   23   91 1    
    48   23   92 1    
    49   23   93 1    
    50   24   25 am   BACKBONE|DICT|INTERRES
    51   24   94 1    
    52   25   26 2    
    53   25   27 1    
    54   27   28 1    
    55   27   29 1    
    56   27   95 1    
    57   28   96 1    
    58   28   97 1    
    59   28   98 1    
    60   29   30 am   BACKBONE|DICT|INTERRES
    61   29   99 1    
    62   30   31 2    
    63   30   32 1    
    64   32   33 1    
    65   32   34 1    
    66   32  100 1    
    67   33  101 1    
    68   33  102 1    
    69   33  103 1    
    70   34   35 am   BACKBONE|DICT|INTERRES
    71   34  104 1    
    72   35   36 2    
    73   37   38 2    
    74   37   39 am   BACKBONE|DICT|INTERRES
    75   39   40 1    
    76   39  105 1    
    77   40   41 1    
    78   40   42 1    
    79   40  106 1    
    80   41  107 1    
    81   41  108 1    
    82   41  109 1    
    83   42   43 2    
    84   42   44 am   BACKBONE|DICT|INTERRES
    85   44   45 1    
    86   44  110 1    
    87   45   46 1    
    88   45   47 1    
    89   45  111 1    
    90   46  112 1    
    91   46  113 1    
    92   46  114 1    
    93   47   48 2    
    94   47   49 am   BACKBONE|DICT|INTERRES
    95   49   50 1    
    96   49  115 1    
    97   50   51 1    
    98   50   52 1    
    99   50  116 1    
   100   51  117 1    
   101   51  118 1    
   102   51  119 1    
   103   52   53 2    
   104   52   54 am   BACKBONE|DICT|INTERRES
   105   54   55 1    
   106   54  120 1    
   107   55   56 1    
   108   55   57 1    
   109   55  121 1    
   110   56  122 1    
   111   56  123 1    
   112   56  124 1    
   113   57   58 2    
   114   57   59 am   BACKBONE|DICT|INTERRES
   115   59   60 1    
   116   59  125 1    
   117   60   61 1    
   118   60   62 1    
   119   60  126 1    
   120   61  127 1    
   121   61  128 1    
   122   61  129 1    
   123   62   63 2    
   124   62   64 am   BACKBONE|DICT|INTERRES
   125   64   65 1    
   126   64  130 1    
   127   65   66 1    
   128   65   69 1    
   129   65  131 1    
   130   66   67 am   BACKBONE|DICT|INTERRES
   131   66   68 2    
   132   67  132 1    
   133   67  133 1    
   134   69   70 1    
   135   69  134 1    
   136   69  135 1    
   137   70   71 1    
   138   71  136 1    
   139   71  137 1    
@<TRIPOS>SUBSTRUCTURE
     1 UNK         1 GROUP             0       ****    0 ROOT    
