@<TRIPOS>MOLECULE
3R136
137   139    1
SMALL
USER_CHARGES


@<TRIPOS>ATOM
      1 CA         29.9810   18.3819   -1.0024 C.3       0 UNK        -0.1979 
      2 C          29.1392   19.6172   -1.2854 C.2       0 UNK         0.4864 
      3 O          28.3216   19.6031   -2.2063 O.2       0 UNK        -0.5359 
      4 N          29.3271   20.6839   -0.4968 N.am      1 UNK        -0.4318 
      5 CA         28.6121   21.9611   -0.6232 C.3       1 UNK         0.0824 
      6 C6         29.4480   23.1357   -0.0546 C.3       12 UNK        -0.0944 
      7 S7         29.8092   23.0008    1.7331 S.3       12 UNK        -0.2672 
      8 C8         31.5137   23.6326    1.8262 C.3       12 UNK         0.0333 
      9 C9         31.5821   25.1288    1.5519 C.ar      12 UNK        -0.0807 
     10 C10        31.3564   26.0459    2.5835 C.ar      12 UNK        -0.0894 
     11 C11        31.4235   27.4271    2.3456 C.ar      12 UNK        -0.0804 
     12 C12        31.7403   27.8731    1.0584 C.ar      12 UNK        -0.0824 
     13 C13        31.9854   26.9658    0.0227 C.ar      12 UNK        -0.0762 
     14 C14        31.8987   25.5952    0.2742 C.ar      12 UNK        -0.0782 
     15 C15        32.3965   27.4633   -1.3550 C.3       12 UNK         0.0230 
     16 S16        31.1024   28.4594   -2.1513 S.3       12 UNK        -0.2608 
     17 C17        29.8241   27.2173   -2.5753 C.3       12 UNK        -0.0989 
     18 CA         28.4706   27.3624   -1.8257 C.3       5 UNK         0.0716 
     19 N          28.5583   26.9372   -0.4220 N.am      5 UNK        -0.4135 
     20 C          27.4871   26.6013    0.3101 C.2       4 UNK         0.5031 
     21 O          26.3416   26.5213   -0.1426 O.2       4 UNK        -0.5229 
     22 CA         27.7111   26.3507    1.8030 C.3       4 UNK         0.0329 
     23 CB         27.5821   27.6717    2.5856 C.3       4 UNK        -0.2001 
     24 N          26.7081   25.3891    2.2485 N.am      4 UNK        -0.4303 
     25 C          26.7066   24.7287    3.4124 C.2       3 UNK         0.5044 
     26 O          27.5539   24.8714    4.2937 O.2       3 UNK        -0.5152 
     27 CA         25.5821   23.7076    3.6109 C.3       3 UNK         0.0319 
     28 CB         24.1997   24.3789    3.7052 C.3       3 UNK        -0.2001 
     29 N          25.6103   22.7401    2.5184 N.am      3 UNK        -0.4354 
     30 C          25.3057   21.4434    2.6121 C.2       2 UNK         0.4964 
     31 O          24.8698   20.9154    3.6359 O.2       2 UNK        -0.5047 
     32 CA         25.5479   20.5715    1.3651 C.3       2 UNK         0.0288 
     33 CB         24.3401   20.6191    0.4081 C.3       2 UNK        -0.2113 
     34 N          26.8128   20.8463    0.6619 N.am      2 UNK        -0.4145 
     35 C          27.1830   21.9359   -0.0317 C.2       1 UNK         0.5006 
     36 O          26.4599   22.9225   -0.1819 O.2       1 UNK        -0.5103 
     37 C          27.8696   28.7831   -1.9488 C.2       5 UNK         0.5055 
     38 O          27.1317   29.0649   -2.8943 O.2       5 UNK        -0.5220 
     39 N          28.2103   29.6320   -0.9745 N.am      6 UNK        -0.4450 
     40 CA         27.9136   31.0469   -0.8036 C.3       6 UNK         0.0367 
     41 CB         28.4816   31.8731   -1.9771 C.3       6 UNK        -0.1929 
     42 C          28.5835   31.4472    0.5212 C.2       6 UNK         0.5070 
     43 O          29.2836   30.6247    1.1220 O.2       6 UNK        -0.5237 
     44 N          28.3787   32.6952    0.9589 N.am      7 UNK        -0.4739 
     45 CA         29.0580   33.2648    2.1263 C.3       7 UNK         0.0276 
     46 CB         28.4402   34.6318    2.4640 C.3       7 UNK        -0.1927 
     47 C          30.5721   33.3901    1.8739 C.2       7 UNK         0.5013 
     48 O          30.9707   34.0073    0.8829 O.2       7 UNK        -0.5193 
     49 N          31.3771   32.8025    2.7632 N.am      8 UNK        -0.4253 
     50 CA         32.8344   32.7674    2.6989 C.3       8 UNK         0.0242 
     51 CB         33.2917   31.6527    1.7385 C.3       8 UNK        -0.2000 
     52 C          33.3704   32.5205    4.1113 C.2       8 UNK         0.4948 
     53 O          32.6412   31.9866    4.9523 O.2       8 UNK        -0.5275 
     54 N          34.6444   32.8736    4.3347 N.am      9 UNK        -0.4246 
     55 CA         35.3448   32.7822    5.6240 C.3       9 UNK         0.0261 
     56 CB         36.7735   33.3279    5.4687 C.3       9 UNK        -0.1959 
     57 C          35.3737   31.3742    6.2463 C.2       9 UNK         0.5033 
     58 O          35.3658   31.2599    7.4727 O.2       9 UNK        -0.5390 
     59 N          35.3474   30.3331    5.4012 N.am      10 UNK        -0.4215 
     60 CA         35.2252   28.9243    5.7931 C.3       10 UNK         0.0240 
     61 CB         35.3565   28.0416    4.5402 C.3       10 UNK        -0.1982 
     62 C          33.9223   28.5902    6.5484 C.2       10 UNK         0.4970 
     63 O          33.9030   27.6123    7.2967 O.2       10 UNK        -0.4916 
     64 N          32.8782   29.4037    6.3498 N.am      11 UNK        -0.4279 
     65 CA         31.5818   29.3213    7.0340 C.3       11 UNK         0.1003 
     66 C          31.4242   30.3989    8.1476 C.2       11 UNK         0.5709 
     67 N          32.4560   31.1575    8.5040 N.am      11 UNK        -0.7358 
     68 O          30.3482   30.5358    8.7253 O.2       11 UNK        -0.4999 
     69 C69        30.4149   29.3543    6.0100 C.3       12 UNK        -0.0954 
     70 S70        30.3898   27.8658    4.9571 S.3       12 UNK        -0.2268 
     71 C71        31.2054   28.4743    3.4420 C.3       12 UNK         0.0203 
     72 H72        29.3375   17.5328   -0.7740 H         1 UNK         0.0888 
     73 H73        30.5813   18.1294   -1.8761 H         1 UNK         0.0888 
     74 H74        30.6561   18.5323   -0.1600 H         1 UNK         0.0888 
     75 H75        30.0087   20.6434    0.2487 H         1 UNK         0.3017 
     76 H76        28.4798   22.1586   -1.6894 H         1 UNK         0.0873 
     77 H77        30.3871   23.1931   -0.6057 H         1 UNK         0.0745 
     78 H78        28.9467   24.0864   -0.2366 H         1 UNK         0.0745 
     79 H79        31.9082   23.4265    2.8223 H         1 UNK         0.0705 
     80 H80        32.1484   23.0813    1.1306 H         1 UNK         0.0705 
     81 H81        31.1260   25.6677    3.5692 H         1 UNK         0.1334 
     82 H82        31.8079   28.9347    0.8601 H         1 UNK         0.1417 
     83 H83        32.0981   24.8894   -0.5205 H         1 UNK         0.1562 
     84 H84        32.6701   26.6365   -2.0124 H         1 UNK         0.0748 
     85 H85        33.2923   28.0772   -1.2511 H         1 UNK         0.0748 
     86 H86        30.2230   26.2126   -2.4273 H         1 UNK         0.0940 
     87 H87        29.6464   27.2964   -3.6494 H         1 UNK         0.0940 
     88 H88        27.7691   26.6870   -2.3211 H         1 UNK         0.0703 
     89 H89        29.4713   26.9824    0.0107 H         1 UNK         0.3081 
     90 H90        28.7000   25.9178    1.9531 H         1 UNK         0.0719 
     91 H91        28.3466   28.3838    2.2755 H         1 UNK         0.0809 
     92 H92        26.6114   28.1423    2.4257 H         1 UNK         0.0809 
     93 H93        27.7051   27.5198    3.6572 H         1 UNK         0.0809 
     94 H94        25.9787   25.2217    1.5654 H         1 UNK         0.2990 
     95 H95        25.7793   23.1910    4.5530 H         1 UNK         0.0690 
     96 H96        23.4245   23.6504    3.9433 H         1 UNK         0.0788 
     97 H97        23.9196   24.8695    2.7724 H         1 UNK         0.0788 
     98 H98        24.1864   25.1350    4.4913 H         1 UNK         0.0788 
     99 H99        25.9749   23.0628    1.6252 H         1 UNK         0.2993 
    100 H100       25.6342   19.5443    1.7237 H         1 UNK         0.0949 
    101 H101       24.4841   19.9550   -0.4443 H         1 UNK         0.0767 
    102 H102       23.4297   20.3005    0.9175 H         1 UNK         0.0767 
    103 H103       24.1591   21.6235    0.0242 H         1 UNK         0.0767 
    104 H104       27.5095   20.1200    0.7496 H         1 UNK         0.3013 
    105 H105       28.8219   29.3013   -0.2352 H         1 UNK         0.3121 
    106 H106       26.8340   31.1830   -0.7208 H         1 UNK         0.0774 
    107 H107       28.0223   31.5965   -2.9256 H         1 UNK         0.0815 
    108 H108       28.2991   32.9391   -1.8380 H         1 UNK         0.0815 
    109 H109       29.5595   31.7368   -2.0762 H         1 UNK         0.0815 
    110 H110       27.8167   33.3257    0.4055 H         1 UNK         0.2987 
    111 H111       28.8918   32.5953    2.9736 H         1 UNK         0.0949 
    112 H112       27.3766   34.5436    2.6862 H         1 UNK         0.0806 
    113 H113       28.9187   35.0687    3.3416 H         1 UNK         0.0806 
    114 H114       28.5552   35.3415    1.6436 H         1 UNK         0.0806 
    115 H115       30.9940   32.3520    3.5854 H         1 UNK         0.3010 
    116 H116       33.2022   33.7347    2.3494 H         1 UNK         0.0829 
    117 H117       32.9706   30.6703    2.0847 H         1 UNK         0.0813 
    118 H118       32.8892   31.7991    0.7358 H         1 UNK         0.0813 
    119 H119       34.3782   31.6292    1.6483 H         1 UNK         0.0813 
    120 H120       35.1659   33.2884    3.5751 H         1 UNK         0.3038 
    121 H121       34.8091   33.4268    6.3242 H         1 UNK         0.0769 
    122 H122       37.3099   33.2940    6.4183 H         1 UNK         0.0811 
    123 H123       37.3517   32.7489    4.7475 H         1 UNK         0.0811 
    124 H124       36.7692   34.3675    5.1405 H         1 UNK         0.0811 
    125 H125       35.3602   30.5297    4.4113 H         1 UNK         0.3204 
    126 H126       36.0555   28.6959    6.4645 H         1 UNK         0.0748 
    127 H127       36.3171   28.1915    4.0469 H         1 UNK         0.0771 
    128 H128       35.2900   26.9837    4.7989 H         1 UNK         0.0771 
    129 H129       34.5692   28.2473    3.8139 H         1 UNK         0.0771 
    130 H130       32.9871   30.2206    5.7570 H         1 UNK         0.2980 
    131 H131       31.5163   28.3705    7.5655 H         1 UNK         0.0545 
    132 H132       32.3300   31.8409    9.2332 H         1 UNK         0.3459 
    133 H133       33.3637   31.0488    8.0690 H         1 UNK         0.3459 
    134 H134       30.4630   30.2512    5.3901 H         1 UNK         0.0616 
    135 H135       29.4516   29.3900    6.5214 H         1 UNK         0.0616 
    136 H136       30.6098   29.2966    3.0440 H         1 UNK         0.0634 
    137 H137       32.1741   28.8952    3.7095 H         1 UNK         0.0634 
@<TRIPOS>BOND
     1    1    2 1    
     2    1   72 1    
     3    1   73 1    
     4    1   74 1    
     5    2    3 2    
     6    2    4 am   BACKBONE|DICT|INTERRES
     7    4    5 1    
     8    4   75 1    
     9    5    6 1    
    10    5   35 1    
    11    5   76 1    
    12    6    7 1    
    13    6   77 1    
    14    6   78 1    
    15    7    8 1    
    16    8    9 1    
    17    8   79 1    
    18    8   80 1    
    19    9   10 ar   
    20    9   14 ar   
    21   10   11 ar   
    22   10   81 1    
    23   11   12 ar   
    24   11   71 1    
    25   12   13 ar   
    26   12   82 1    
    27   13   14 ar   
    28   13   15 1    
    29   14   83 1    
    30   15   16 1    
    31   15   84 1    
    32   15   85 1    
    33   16   17 1    
    34   17   18 1    
    35   17   86 1    
    36   17   87 1    
    37   18   19 1    
    38   18   37 1    
    39   18   88 1    
    40   19   20 am   BACKBONE|DICT|INTERRES
    41   19   89 1    
    42   20   21 2    
    43   20   22 1    
    44   22   23 1    
    45   22   24 1    
    46   22   90 1    
    47   23   91 1    
    48   23   92 1    
    49   23   93 1    
    50   24   25 am   BACKBONE|DICT|INTERRES
    51   24   94 1    
    52   25   26 2    
    53   25   27 1    
    54   27   28 1    
    55   27   29 1    
    56   27   95 1    
    57   28   96 1    
    58   28   97 1    
    59   28   98 1    
    60   29   30 am   BACKBONE|DICT|INTERRES
    61   29   99 1    
    62   30   31 2    
    63   30   32 1    
    64   32   33 1    
    65   32   34 1    
    66   32  100 1    
    67   33  101 1    
    68   33  102 1    
    69   33  103 1    
    70   34   35 am   BACKBONE|DICT|INTERRES
    71   34  104 1    
    72   35   36 2    
    73   37   38 2    
    74   37   39 am   BACKBONE|DICT|INTERRES
    75   39   40 1    
    76   39  105 1    
    77   40   41 1    
    78   40   42 1    
    79   40  106 1    
    80   41  107 1    
    81   41  108 1    
    82   41  109 1    
    83   42   43 2    
    84   42   44 am   BACKBONE|DICT|INTERRES
    85   44   45 1    
    86   44  110 1    
    87   45   46 1    
    88   45   47 1    
    89   45  111 1    
    90   46  112 1    
    91   46  113 1    
    92   46  114 1    
    93   47   48 2    
    94   47   49 am   BACKBONE|DICT|INTERRES
    95   49   50 1    
    96   49  115 1    
    97   50   51 1    
    98   50   52 1    
    99   50  116 1    
   100   51  117 1    
   101   51  118 1    
   102   51  119 1    
   103   52   53 2    
   104   52   54 am   BACKBONE|DICT|INTERRES
   105   54   55 1    
   106   54  120 1    
   107   55   56 1    
   108   55   57 1    
   109   55  121 1    
   110   56  122 1    
   111   56  123 1    
   112   56  124 1    
   113   57   58 2    
   114   57   59 am   BACKBONE|DICT|INTERRES
   115   59   60 1    
   116   59  125 1    
   117   60   61 1    
   118   60   62 1    
   119   60  126 1    
   120   61  127 1    
   121   61  128 1    
   122   61  129 1    
   123   62   63 2    
   124   62   64 am   BACKBONE|DICT|INTERRES
   125   64   65 1    
   126   64  130 1    
   127   65   66 1    
   128   65   69 1    
   129   65  131 1    
   130   66   67 am   BACKBONE|DICT|INTERRES
   131   66   68 2    
   132   67  132 1    
   133   67  133 1    
   134   69   70 1    
   135   69  134 1    
   136   69  135 1    
   137   70   71 1    
   138   71  136 1    
   139   71  137 1    
@<TRIPOS>SUBSTRUCTURE
     1 UNK         1 GROUP             0       ****    0 ROOT    
