@<TRIPOS>MOLECULE
3R136
137   139    1
SMALL
USER_CHARGES


@<TRIPOS>ATOM
      1 CA         32.5161   25.5453   -2.9950 C.3       0 UNK        -0.1979 
      2 C          32.0611   24.1627   -2.5326 C.2       0 UNK         0.4864 
      3 O          32.5939   23.1622   -3.0103 O.2       0 UNK        -0.5359 
      4 N          31.1017   24.0487   -1.6040 N.am      1 UNK        -0.4318 
      5 CA         30.3038   25.1261   -1.0103 C.3       1 UNK         0.0824 
      6 C6         29.7235   24.7368    0.3747 C.3       12 UNK        -0.0944 
      7 S7         29.0108   23.0563    0.4956 S.3       12 UNK        -0.2672 
      8 C8         30.3676   22.1127    1.2737 C.3       12 UNK         0.0333 
      9 C9         30.5894   22.5159    2.7249 C.ar      12 UNK        -0.0807 
     10 C10        31.6107   23.4107    3.0601 C.ar      12 UNK        -0.0894 
     11 C11        31.7814   23.8307    4.3811 C.ar      12 UNK        -0.0804 
     12 C12        30.9402   23.3273    5.3774 C.ar      12 UNK        -0.0824 
     13 C13        29.9273   22.4163    5.0589 C.ar      12 UNK        -0.0762 
     14 C14        29.7641   22.0050    3.7316 C.ar      12 UNK        -0.0782 
     15 C15        28.9775   21.9177    6.1405 C.3       12 UNK         0.0230 
     16 S16        27.3058   22.6318    5.9695 S.3       12 UNK        -0.2608 
     17 C17        27.6527   24.4251    6.0117 C.3       12 UNK        -0.0989 
     18 CA         27.7634   25.0176    4.5795 C.3       5 UNK         0.0716 
     19 N          26.5301   24.9002    3.8001 N.am      5 UNK        -0.4135 
     20 C          25.3869   25.5736    3.9758 C.2       4 UNK         0.5031 
     21 O          25.1770   26.3749    4.8887 O.2       4 UNK        -0.5229 
     22 CA         24.3048   25.3220    2.9068 C.3       4 UNK         0.0329 
     23 CB         22.8924   25.3328    3.5189 C.3       4 UNK        -0.2001 
     24 N          24.3502   26.2814    1.7956 N.am      4 UNK        -0.4303 
     25 C          25.4164   26.5797    1.0389 C.2       3 UNK         0.5044 
     26 O          26.5393   26.0963    1.2051 O.2       3 UNK        -0.5152 
     27 CA         25.1843   27.5669   -0.1135 C.3       3 UNK         0.0319 
     28 CB         24.7464   28.9565    0.3828 C.3       3 UNK        -0.2001 
     29 N          26.4291   27.6937   -0.8650 N.am      3 UNK        -0.4354 
     30 C          26.5503   27.6709   -2.1956 C.2       2 UNK         0.4964 
     31 O          25.5966   27.6529   -2.9748 O.2       2 UNK        -0.5047 
     32 CA         27.9797   27.6518   -2.7558 C.3       2 UNK         0.0288 
     33 CB         28.4970   29.0868   -2.9513 C.3       2 UNK        -0.2113 
     34 N          28.9013   26.9342   -1.8727 N.am      2 UNK        -0.4145 
     35 C          29.2320   25.6425   -1.9942 C.2       1 UNK         0.5006 
     36 O          28.7650   24.8911   -2.8542 O.2       1 UNK        -0.5103 
     37 C          28.3622   26.4392    4.5346 C.2       5 UNK         0.5055 
     38 O          28.7859   26.9641    5.5665 O.2       5 UNK        -0.5220 
     39 N          28.4016   27.0309    3.3332 N.am      6 UNK        -0.4450 
     40 CA         29.0630   28.3013    3.0643 C.3       6 UNK         0.0367 
     41 CB         28.0565   29.4561    3.1856 C.3       6 UNK        -0.1929 
     42 C          29.6958   28.2496    1.6714 C.2       6 UNK         0.5070 
     43 O          28.9773   28.1328    0.6761 O.2       6 UNK        -0.5237 
     44 N          31.0292   28.3300    1.6262 N.am      7 UNK        -0.4739 
     45 CA         31.8212   28.5406    0.4148 C.3       7 UNK         0.0276 
     46 CB         33.1140   27.7034    0.5122 C.3       7 UNK        -0.1927 
     47 C          32.0476   30.0534    0.2445 C.2       7 UNK         0.5013 
     48 O          31.0722   30.7889    0.0863 O.2       7 UNK        -0.5193 
     49 N          33.3062   30.5085    0.3090 N.am      8 UNK        -0.4253 
     50 CA         33.6523   31.9259    0.4280 C.3       8 UNK         0.0242 
     51 CB         35.1559   32.1101    0.1675 C.3       8 UNK        -0.2000 
     52 C          33.2809   32.4158    1.8351 C.2       8 UNK         0.4948 
     53 O          33.6892   31.7764    2.8083 O.2       8 UNK        -0.5275 
     54 N          32.5044   33.5052    1.9207 N.am      9 UNK        -0.4246 
     55 CA         31.9083   34.0579    3.1444 C.3       9 UNK         0.0261 
     56 CB         32.9915   34.6613    4.0690 C.3       9 UNK        -0.1959 
     57 C          31.0021   33.0193    3.8356 C.2       9 UNK         0.5033 
     58 O          29.8626   32.8385    3.4053 O.2       9 UNK        -0.5390 
     59 N          31.5322   32.3395    4.8575 N.am      10 UNK        -0.4215 
     60 CA         30.9151   31.2041    5.5393 C.3       10 UNK         0.0240 
     61 CB         30.2301   31.6830    6.8338 C.3       10 UNK        -0.1982 
     62 C          31.9869   30.1273    5.7728 C.2       10 UNK         0.4970 
     63 O          32.1866   29.6969    6.9092 O.2       10 UNK        -0.4916 
     64 N          32.6855   29.7575    4.6893 N.am      11 UNK        -0.4279 
     65 CA         33.8795   28.8929    4.6754 C.3       11 UNK         0.1003 
     66 C          35.1204   29.6114    5.2820 C.2       11 UNK         0.5709 
     67 N          35.3616   30.8625    4.9101 N.am      11 UNK        -0.7358 
     68 O          35.8678   29.0490    6.0796 O.2       11 UNK        -0.4999 
     69 C69        33.6503   27.4612    5.2440 C.3       12 UNK        -0.0954 
     70 S70        32.3227   26.5412    4.4000 S.3       12 UNK        -0.2268 
     71 C71        32.8671   24.8364    4.7289 C.3       12 UNK         0.0203 
     72 H72        31.6999   26.0935   -3.4638 H         1 UNK         0.0888 
     73 H73        32.9032   26.1280   -2.1604 H         1 UNK         0.0888 
     74 H74        33.3156   25.4558   -3.7303 H         1 UNK         0.0888 
     75 H75        30.7904   23.1226   -1.3493 H         1 UNK         0.3017 
     76 H76        30.9793   25.9602   -0.8275 H         1 UNK         0.0873 
     77 H77        28.9540   25.4431    0.6818 H         1 UNK         0.0745 
     78 H78        30.5046   24.8513    1.1230 H         1 UNK         0.0745 
     79 H79        30.1273   21.0495    1.2258 H         1 UNK         0.0705 
     80 H80        31.2839   22.2420    0.6960 H         1 UNK         0.0705 
     81 H81        32.2595   23.8041    2.2894 H         1 UNK         0.1334 
     82 H82        31.0627   23.6613    6.3988 H         1 UNK         0.1417 
     83 H83        28.9679   21.3181    3.4774 H         1 UNK         0.1562 
     84 H84        29.3646   22.1491    7.1341 H         1 UNK         0.0748 
     85 H85        28.9062   20.8305    6.0862 H         1 UNK         0.0748 
     86 H86        28.5707   24.5878    6.5791 H         1 UNK         0.0940 
     87 H87        26.8625   24.9261    6.5730 H         1 UNK         0.0940 
     88 H88        28.4894   24.4234    4.0283 H         1 UNK         0.0703 
     89 H89        26.6042   24.3239    2.9733 H         1 UNK         0.3081 
     90 H90        24.4714   24.3285    2.4853 H         1 UNK         0.0719 
     91 H91        22.6230   26.3195    3.8981 H         1 UNK         0.0809 
     92 H92        22.1393   25.0362    2.7887 H         1 UNK         0.0809 
     93 H93        22.8243   24.6340    4.3539 H         1 UNK         0.0809 
     94 H94        23.4788   26.7448    1.5835 H         1 UNK         0.2990 
     95 H95        24.4018   27.1464   -0.7487 H         1 UNK         0.0690 
     96 H96        24.5788   29.6345   -0.4543 H         1 UNK         0.0788 
     97 H97        25.4963   29.4108    1.0285 H         1 UNK         0.0788 
     98 H98        23.8138   28.9072    0.9455 H         1 UNK         0.0788 
     99 H99        27.2690   27.6668   -0.2926 H         1 UNK         0.2993 
    100 H100       27.9482   27.1641   -3.7328 H         1 UNK         0.0949 
    101 H101       27.8340   29.6560   -3.6045 H         1 UNK         0.0767 
    102 H102       28.5652   29.6244   -2.0039 H         1 UNK         0.0767 
    103 H103       29.4861   29.0915   -3.4097 H         1 UNK         0.0767 
    104 H104       29.2172   27.4500   -1.0544 H         1 UNK         0.3013 
    105 H105       27.9791   26.5726    2.5288 H         1 UNK         0.3121 
    106 H106       29.8584   28.4632    3.7952 H         1 UNK         0.0774 
    107 H107       28.5168   30.4077    2.9161 H         1 UNK         0.0815 
    108 H108       27.2010   29.3084    2.5288 H         1 UNK         0.0815 
    109 H109       27.6832   29.5498    4.2054 H         1 UNK         0.0815 
    110 H110       31.5347   28.3686    2.4998 H         1 UNK         0.2987 
    111 H111       31.2669   28.2158   -0.4663 H         1 UNK         0.0949 
    112 H112       32.8855   26.6420    0.6115 H         1 UNK         0.0806 
    113 H113       33.7272   27.8138   -0.3833 H         1 UNK         0.0806 
    114 H114       33.7235   27.9803    1.3725 H         1 UNK         0.0806 
    115 H115       34.0536   29.8484    0.4641 H         1 UNK         0.3010 
    116 H116       33.0942   32.4931   -0.3204 H         1 UNK         0.0829 
    117 H117       35.4315   31.7656   -0.8294 H         1 UNK         0.0813 
    118 H118       35.4361   33.1621    0.2358 H         1 UNK         0.0813 
    119 H119       35.7629   31.5646    0.8917 H         1 UNK         0.0813 
    120 H120       32.1945   33.9350    1.0599 H         1 UNK         0.3038 
    121 H121       31.2549   34.8744    2.8325 H         1 UNK         0.0769 
    122 H122       33.7497   33.9362    4.3651 H         1 UNK         0.0811 
    123 H123       32.5477   35.0663    4.9795 H         1 UNK         0.0811 
    124 H124       33.5073   35.4840    3.5738 H         1 UNK         0.0811 
    125 H125       32.4931   32.5347    5.1053 H         1 UNK         0.3204 
    126 H126       30.1558   30.7520    4.8987 H         1 UNK         0.0748 
    127 H127       29.4563   32.4208    6.6208 H         1 UNK         0.0771 
    128 H128       29.7504   30.8520    7.3527 H         1 UNK         0.0771 
    129 H129       30.9434   32.1351    7.5239 H         1 UNK         0.0771 
    130 H130       32.5457   30.2911    3.8406 H         1 UNK         0.2980 
    131 H131       34.1323   28.7673    3.6227 H         1 UNK         0.0545 
    132 H132       36.1598   31.3482    5.2857 H         1 UNK         0.3459 
    133 H133       34.7875   31.2967    4.1907 H         1 UNK         0.3459 
    134 H134       34.5701   26.8813    5.1477 H         1 UNK         0.0616 
    135 H135       33.4265   27.4914    6.3109 H         1 UNK         0.0616 
    136 H136       33.7694   24.6275    4.1522 H         1 UNK         0.0634 
    137 H137       33.1420   24.7417    5.7808 H         1 UNK         0.0634 
@<TRIPOS>BOND
     1    1    2 1    
     2    1   72 1    
     3    1   73 1    
     4    1   74 1    
     5    2    3 2    
     6    2    4 am   BACKBONE|DICT|INTERRES
     7    4    5 1    
     8    4   75 1    
     9    5    6 1    
    10    5   35 1    
    11    5   76 1    
    12    6    7 1    
    13    6   77 1    
    14    6   78 1    
    15    7    8 1    
    16    8    9 1    
    17    8   79 1    
    18    8   80 1    
    19    9   10 ar   
    20    9   14 ar   
    21   10   11 ar   
    22   10   81 1    
    23   11   12 ar   
    24   11   71 1    
    25   12   13 ar   
    26   12   82 1    
    27   13   14 ar   
    28   13   15 1    
    29   14   83 1    
    30   15   16 1    
    31   15   84 1    
    32   15   85 1    
    33   16   17 1    
    34   17   18 1    
    35   17   86 1    
    36   17   87 1    
    37   18   19 1    
    38   18   37 1    
    39   18   88 1    
    40   19   20 am   BACKBONE|DICT|INTERRES
    41   19   89 1    
    42   20   21 2    
    43   20   22 1    
    44   22   23 1    
    45   22   24 1    
    46   22   90 1    
    47   23   91 1    
    48   23   92 1    
    49   23   93 1    
    50   24   25 am   BACKBONE|DICT|INTERRES
    51   24   94 1    
    52   25   26 2    
    53   25   27 1    
    54   27   28 1    
    55   27   29 1    
    56   27   95 1    
    57   28   96 1    
    58   28   97 1    
    59   28   98 1    
    60   29   30 am   BACKBONE|DICT|INTERRES
    61   29   99 1    
    62   30   31 2    
    63   30   32 1    
    64   32   33 1    
    65   32   34 1    
    66   32  100 1    
    67   33  101 1    
    68   33  102 1    
    69   33  103 1    
    70   34   35 am   BACKBONE|DICT|INTERRES
    71   34  104 1    
    72   35   36 2    
    73   37   38 2    
    74   37   39 am   BACKBONE|DICT|INTERRES
    75   39   40 1    
    76   39  105 1    
    77   40   41 1    
    78   40   42 1    
    79   40  106 1    
    80   41  107 1    
    81   41  108 1    
    82   41  109 1    
    83   42   43 2    
    84   42   44 am   BACKBONE|DICT|INTERRES
    85   44   45 1    
    86   44  110 1    
    87   45   46 1    
    88   45   47 1    
    89   45  111 1    
    90   46  112 1    
    91   46  113 1    
    92   46  114 1    
    93   47   48 2    
    94   47   49 am   BACKBONE|DICT|INTERRES
    95   49   50 1    
    96   49  115 1    
    97   50   51 1    
    98   50   52 1    
    99   50  116 1    
   100   51  117 1    
   101   51  118 1    
   102   51  119 1    
   103   52   53 2    
   104   52   54 am   BACKBONE|DICT|INTERRES
   105   54   55 1    
   106   54  120 1    
   107   55   56 1    
   108   55   57 1    
   109   55  121 1    
   110   56  122 1    
   111   56  123 1    
   112   56  124 1    
   113   57   58 2    
   114   57   59 am   BACKBONE|DICT|INTERRES
   115   59   60 1    
   116   59  125 1    
   117   60   61 1    
   118   60   62 1    
   119   60  126 1    
   120   61  127 1    
   121   61  128 1    
   122   61  129 1    
   123   62   63 2    
   124   62   64 am   BACKBONE|DICT|INTERRES
   125   64   65 1    
   126   64  130 1    
   127   65   66 1    
   128   65   69 1    
   129   65  131 1    
   130   66   67 am   BACKBONE|DICT|INTERRES
   131   66   68 2    
   132   67  132 1    
   133   67  133 1    
   134   69   70 1    
   135   69  134 1    
   136   69  135 1    
   137   70   71 1    
   138   71  136 1    
   139   71  137 1    
@<TRIPOS>SUBSTRUCTURE
     1 UNK         1 GROUP             0       ****    0 ROOT    
