@<TRIPOS>MOLECULE
3R136
137   139    1
SMALL
USER_CHARGES


@<TRIPOS>ATOM
      1 CA         25.3134   24.4039    4.0009 C.3       0 UNK        -0.1979 
      2 C          26.2942   24.2465    2.8488 C.2       0 UNK         0.4864 
      3 O          26.9328   25.2248    2.4595 O.2       0 UNK        -0.5359 
      4 N          26.4083   23.0262    2.3055 N.am      1 UNK        -0.4318 
      5 CA         27.2236   22.6458    1.1397 C.3       1 UNK         0.0824 
      6 C6         28.7351   22.9912    1.2832 C.3       12 UNK        -0.0944 
      7 S7         29.4883   22.2634    2.7778 S.3       12 UNK        -0.2672 
      8 C8         31.2241   22.0633    2.2679 C.3       12 UNK         0.0333 
      9 C9         31.9420   23.3982    2.1126 C.ar      12 UNK        -0.0807 
     10 C10        32.5982   23.9811    3.2014 C.ar      12 UNK        -0.0894 
     11 C11        33.3128   25.1750    3.0474 C.ar      12 UNK        -0.0804 
     12 C12        33.3421   25.8012    1.7961 C.ar      12 UNK        -0.0824 
     13 C13        32.6760   25.2354    0.7037 C.ar      12 UNK        -0.0762 
     14 C14        31.9892   24.0288    0.8670 C.ar      12 UNK        -0.0782 
     15 C15        32.7272   25.8994   -0.6664 C.3       12 UNK         0.0230 
     16 S16        31.6850   27.3895   -0.7761 S.3       12 UNK        -0.2608 
     17 C17        30.0087   26.7392   -0.4480 C.3       12 UNK        -0.0989 
     18 CA         29.1827   27.6689    0.4730 C.3       5 UNK         0.0716 
     19 N          27.7545   27.3604    0.4129 N.am      5 UNK        -0.4135 
     20 C          26.7734   28.1062    0.9407 C.2       4 UNK         0.5031 
     21 O          26.9794   29.1277    1.5995 O.2       4 UNK        -0.5229 
     22 CA         25.3295   27.6135    0.7114 C.3       4 UNK         0.0329 
     23 CB         24.3002   28.7635    0.7135 C.3       4 UNK        -0.2001 
     24 N          25.1982   26.7641   -0.4825 N.am      4 UNK        -0.4303 
     25 C          25.3622   27.1246   -1.7635 C.2       3 UNK         0.5044 
     26 O          25.5765   28.2758   -2.1460 O.2       3 UNK        -0.5152 
     27 CA         25.3928   25.9761   -2.7782 C.3       3 UNK         0.0319 
     28 CB         24.6908   26.3442   -4.0971 C.3       3 UNK        -0.2001 
     29 N          26.8051   25.7016   -3.0416 N.am      3 UNK        -0.4354 
     30 C          27.4989   24.5602   -2.9286 C.2       2 UNK         0.4964 
     31 O          28.7244   24.5593   -3.0368 O.2       2 UNK        -0.5047 
     32 CA         26.8025   23.2106   -2.6519 C.3       2 UNK         0.0288 
     33 CB         27.2275   22.1543   -3.6880 C.3       2 UNK        -0.2113 
     34 N          27.1657   22.7350   -1.3160 N.am      2 UNK        -0.4145 
     35 C          26.6308   23.1977   -0.1786 C.2       1 UNK         0.5006 
     36 O          25.7023   24.0105   -0.1613 O.2       1 UNK        -0.5103 
     37 C          29.7248   27.7247    1.9165 C.2       5 UNK         0.5055 
     38 O          30.5493   28.5912    2.2002 O.2       5 UNK        -0.5220 
     39 N          29.2109   26.8771    2.8218 N.am      6 UNK        -0.4450 
     40 CA         29.6039   26.8763    4.2351 C.3       6 UNK         0.0367 
     41 CB         29.0809   25.6099    4.9263 C.3       6 UNK        -0.1929 
     42 C          29.1580   28.1351    5.0031 C.2       6 UNK         0.5070 
     43 O          29.7425   28.4401    6.0429 O.2       6 UNK        -0.5237 
     44 N          28.1358   28.8359    4.4929 N.am      7 UNK        -0.4739 
     45 CA         27.6868   30.1283    5.0073 C.3       7 UNK         0.0276 
     46 CB         26.1593   30.2334    4.8627 C.3       7 UNK        -0.1927 
     47 C          28.3835   31.2890    4.2796 C.2       7 UNK         0.5013 
     48 O          28.7388   32.2749    4.9263 O.2       7 UNK        -0.5193 
     49 N          28.5386   31.1688    2.9529 N.am      8 UNK        -0.4253 
     50 CA         29.0970   32.2078    2.0868 C.3       8 UNK         0.0242 
     51 CB         28.7280   31.9101    0.6245 C.3       8 UNK        -0.2000 
     52 C          30.6164   32.3962    2.2329 C.2       8 UNK         0.4948 
     53 O          31.0728   33.5409    2.2554 O.2       8 UNK        -0.5275 
     54 N          31.3768   31.2948    2.2943 N.am      9 UNK        -0.4246 
     55 CA         32.8369   31.3157    2.3950 C.3       9 UNK         0.0261 
     56 CB         33.4077   30.0142    1.8059 C.3       9 UNK        -0.1959 
     57 C          33.2963   31.4875    3.8493 C.2       9 UNK         0.5033 
     58 O          32.5920   31.0904    4.7813 O.2       9 UNK        -0.5390 
     59 N          34.5095   32.0270    4.0180 N.am      10 UNK        -0.4215 
     60 CA         35.1938   32.1709    5.3046 C.3       10 UNK         0.0240 
     61 CB         36.1976   33.3361    5.2100 C.3       10 UNK        -0.1982 
     62 C          35.8575   30.8443    5.7225 C.2       10 UNK         0.4970 
     63 O          37.0857   30.7624    5.7882 O.2       10 UNK        -0.4916 
     64 N          35.0286   29.8206    5.9564 N.am      11 UNK        -0.4279 
     65 CA         35.4294   28.4746    6.3904 C.3       11 UNK         0.1003 
     66 C          36.1580   28.4728    7.7634 C.2       11 UNK         0.5709 
     67 N          37.1436   27.6036    7.9425 N.am      11 UNK        -0.7358 
     68 O          35.8097   29.2189    8.6774 O.2       11 UNK        -0.4999 
     69 C69        34.2182   27.5080    6.4255 C.3       12 UNK        -0.0954 
     70 S70        33.3946   27.3261    4.8083 S.3       12 UNK        -0.2268 
     71 C71        34.0941   25.7539    4.2208 C.3       12 UNK         0.0203 
     72 H72        25.8499   24.5231    4.9411 H         1 UNK         0.0888 
     73 H73        24.6939   25.2869    3.8465 H         1 UNK         0.0888 
     74 H74        24.6535   23.5415    4.0921 H         1 UNK         0.0888 
     75 H75        25.8384   22.2804    2.6781 H         1 UNK         0.3017 
     76 H76        27.1387   21.5601    1.0712 H         1 UNK         0.0873 
     77 H77        28.8974   24.0690    1.3080 H         1 UNK         0.0745 
     78 H78        29.2873   22.6237    0.4175 H         1 UNK         0.0745 
     79 H79        31.7374   21.4571    3.0158 H         1 UNK         0.0705 
     80 H80        31.2697   21.4933    1.3386 H         1 UNK         0.0705 
     81 H81        32.5727   23.4886    4.1639 H         1 UNK         0.1334 
     82 H82        33.8881   26.7264    1.6713 H         1 UNK         0.1417 
     83 H83        31.4947   23.5756    0.0189 H         1 UNK         0.1562 
     84 H84        32.4255   25.2003   -1.4480 H         1 UNK         0.0748 
     85 H85        33.7580   26.1770   -0.8911 H         1 UNK         0.0748 
     86 H86        30.0510   25.7311   -0.0385 H         1 UNK         0.0940 
     87 H87        29.5167   26.6449   -1.4169 H         1 UNK         0.0940 
     88 H88        29.2764   28.6788    0.0706 H         1 UNK         0.0703 
     89 H89        27.4904   26.5031   -0.0474 H         1 UNK         0.3081 
     90 H90        25.0957   26.9710    1.5608 H         1 UNK         0.0719 
     91 H91        24.5209   29.5089   -0.0509 H         1 UNK         0.0809 
     92 H92        23.2897   28.3930    0.5423 H         1 UNK         0.0809 
     93 H93        24.2968   29.2801    1.6741 H         1 UNK         0.0809 
     94 H94        25.1257   25.7653   -0.2893 H         1 UNK         0.2990 
     95 H95        24.8617   25.1349   -2.3387 H         1 UNK         0.0690 
     96 H96        23.6487   26.6140   -3.9211 H         1 UNK         0.0788 
     97 H97        24.6965   25.5056   -4.7935 H         1 UNK         0.0788 
     98 H98        25.1686   27.1907   -4.5923 H         1 UNK         0.0788 
     99 H99        27.3402   26.5377   -3.2319 H         1 UNK         0.2993 
    100 H100       25.7199   23.2890   -2.7258 H         1 UNK         0.0949 
    101 H101       28.3021   21.9669   -3.6665 H         1 UNK         0.0767 
    102 H102       26.7199   21.2048   -3.5162 H         1 UNK         0.0767 
    103 H103       26.9735   22.4780   -4.6983 H         1 UNK         0.0767 
    104 H104       27.9306   22.0776   -1.2703 H         1 UNK         0.3013 
    105 H105       28.4638   26.2363    2.5540 H         1 UNK         0.3121 
    106 H106       30.6921   26.8426    4.2650 H         1 UNK         0.0774 
    107 H107       27.9936   25.6084    4.9874 H         1 UNK         0.0815 
    108 H108       29.4642   25.5383    5.9448 H         1 UNK         0.0815 
    109 H109       29.3956   24.7113    4.3978 H         1 UNK         0.0815 
    110 H110       27.7282   28.5278    3.6191 H         1 UNK         0.2987 
    111 H111       27.9281   30.2085    6.0698 H         1 UNK         0.0949 
    112 H112       25.8418   30.1732    3.8212 H         1 UNK         0.0806 
    113 H113       25.6545   29.4391    5.4126 H         1 UNK         0.0806 
    114 H114       25.7963   31.1828    5.2587 H         1 UNK         0.0806 
    115 H115       28.1569   30.3473    2.4920 H         1 UNK         0.3010 
    116 H116       28.6235   33.1532    2.3607 H         1 UNK         0.0829 
    117 H117       27.6489   31.8220    0.4957 H         1 UNK         0.0813 
    118 H118       29.0701   32.7096   -0.0339 H         1 UNK         0.0813 
    119 H119       29.1835   30.9842    0.2747 H         1 UNK         0.0813 
    120 H120       30.9407   30.3736    2.3175 H         1 UNK         0.3038 
    121 H121       33.2186   32.1519    1.8048 H         1 UNK         0.0769 
    122 H122       33.1103   29.1439    2.3915 H         1 UNK         0.0811 
    123 H123       34.4978   30.0332    1.7868 H         1 UNK         0.0811 
    124 H124       33.0668   29.8571    0.7824 H         1 UNK         0.0811 
    125 H125       35.0405   32.2882    3.1991 H         1 UNK         0.3204 
    126 H126       34.4621   32.4270    6.0742 H         1 UNK         0.0748 
    127 H127       36.9588   33.1569    4.4495 H         1 UNK         0.0771 
    128 H128       35.6952   34.2727    4.9672 H         1 UNK         0.0771 
    129 H129       36.7134   33.4844    6.1598 H         1 UNK         0.0771 
    130 H130       34.0343   29.9743    5.8294 H         1 UNK         0.2980 
    131 H131       36.1336   28.1036    5.6431 H         1 UNK         0.0545 
    132 H132       37.6171   27.5773    8.8320 H         1 UNK         0.3459 
    133 H133       37.4298   26.9788    7.2048 H         1 UNK         0.3459 
    134 H134       34.5223   26.5226    6.7826 H         1 UNK         0.0616 
    135 H135       33.4719   27.8655    7.1375 H         1 UNK         0.0616 
    136 H136       34.1142   25.0383    5.0440 H         1 UNK         0.0634 
    137 H137       35.1317   25.9142    3.9250 H         1 UNK         0.0634 
@<TRIPOS>BOND
     1    1    2 1    
     2    1   72 1    
     3    1   73 1    
     4    1   74 1    
     5    2    3 2    
     6    2    4 am   BACKBONE|DICT|INTERRES
     7    4    5 1    
     8    4   75 1    
     9    5    6 1    
    10    5   35 1    
    11    5   76 1    
    12    6    7 1    
    13    6   77 1    
    14    6   78 1    
    15    7    8 1    
    16    8    9 1    
    17    8   79 1    
    18    8   80 1    
    19    9   10 ar   
    20    9   14 ar   
    21   10   11 ar   
    22   10   81 1    
    23   11   12 ar   
    24   11   71 1    
    25   12   13 ar   
    26   12   82 1    
    27   13   14 ar   
    28   13   15 1    
    29   14   83 1    
    30   15   16 1    
    31   15   84 1    
    32   15   85 1    
    33   16   17 1    
    34   17   18 1    
    35   17   86 1    
    36   17   87 1    
    37   18   19 1    
    38   18   37 1    
    39   18   88 1    
    40   19   20 am   BACKBONE|DICT|INTERRES
    41   19   89 1    
    42   20   21 2    
    43   20   22 1    
    44   22   23 1    
    45   22   24 1    
    46   22   90 1    
    47   23   91 1    
    48   23   92 1    
    49   23   93 1    
    50   24   25 am   BACKBONE|DICT|INTERRES
    51   24   94 1    
    52   25   26 2    
    53   25   27 1    
    54   27   28 1    
    55   27   29 1    
    56   27   95 1    
    57   28   96 1    
    58   28   97 1    
    59   28   98 1    
    60   29   30 am   BACKBONE|DICT|INTERRES
    61   29   99 1    
    62   30   31 2    
    63   30   32 1    
    64   32   33 1    
    65   32   34 1    
    66   32  100 1    
    67   33  101 1    
    68   33  102 1    
    69   33  103 1    
    70   34   35 am   BACKBONE|DICT|INTERRES
    71   34  104 1    
    72   35   36 2    
    73   37   38 2    
    74   37   39 am   BACKBONE|DICT|INTERRES
    75   39   40 1    
    76   39  105 1    
    77   40   41 1    
    78   40   42 1    
    79   40  106 1    
    80   41  107 1    
    81   41  108 1    
    82   41  109 1    
    83   42   43 2    
    84   42   44 am   BACKBONE|DICT|INTERRES
    85   44   45 1    
    86   44  110 1    
    87   45   46 1    
    88   45   47 1    
    89   45  111 1    
    90   46  112 1    
    91   46  113 1    
    92   46  114 1    
    93   47   48 2    
    94   47   49 am   BACKBONE|DICT|INTERRES
    95   49   50 1    
    96   49  115 1    
    97   50   51 1    
    98   50   52 1    
    99   50  116 1    
   100   51  117 1    
   101   51  118 1    
   102   51  119 1    
   103   52   53 2    
   104   52   54 am   BACKBONE|DICT|INTERRES
   105   54   55 1    
   106   54  120 1    
   107   55   56 1    
   108   55   57 1    
   109   55  121 1    
   110   56  122 1    
   111   56  123 1    
   112   56  124 1    
   113   57   58 2    
   114   57   59 am   BACKBONE|DICT|INTERRES
   115   59   60 1    
   116   59  125 1    
   117   60   61 1    
   118   60   62 1    
   119   60  126 1    
   120   61  127 1    
   121   61  128 1    
   122   61  129 1    
   123   62   63 2    
   124   62   64 am   BACKBONE|DICT|INTERRES
   125   64   65 1    
   126   64  130 1    
   127   65   66 1    
   128   65   69 1    
   129   65  131 1    
   130   66   67 am   BACKBONE|DICT|INTERRES
   131   66   68 2    
   132   67  132 1    
   133   67  133 1    
   134   69   70 1    
   135   69  134 1    
   136   69  135 1    
   137   70   71 1    
   138   71  136 1    
   139   71  137 1    
@<TRIPOS>SUBSTRUCTURE
     1 UNK         1 GROUP             0       ****    0 ROOT    
