@<TRIPOS>MOLECULE
3R136
137   139    1
SMALL
USER_CHARGES


@<TRIPOS>ATOM
      1 CA         28.0988   21.8964   -4.7244 C.3       0 UNK        -0.1979 
      2 C          28.4951   22.6706   -3.4758 C.2       0 UNK         0.4864 
      3 O          28.3007   23.8866   -3.4208 O.2       0 UNK        -0.5359 
      4 N          29.0282   21.9760   -2.4579 N.am      1 UNK        -0.4318 
      5 CA         29.5247   22.5639   -1.2020 C.3       1 UNK         0.0824 
      6 C6         30.4002   21.5697   -0.3880 C.3       12 UNK        -0.0944 
      7 S7         32.0100   22.3011    0.0733 S.3       12 UNK        -0.2672 
      8 C8         32.2708   21.6635    1.7581 C.3       12 UNK         0.0333 
      9 C9         31.7346   22.6096    2.8235 C.ar      12 UNK        -0.0807 
     10 C10        32.5692   23.5816    3.3855 C.ar      12 UNK        -0.0894 
     11 C11        32.1004   24.4159    4.4052 C.ar      12 UNK        -0.0804 
     12 C12        30.7791   24.2914    4.8461 C.ar      12 UNK        -0.0824 
     13 C13        29.9341   23.3266    4.2904 C.ar      12 UNK        -0.0762 
     14 C14        30.4209   22.4859    3.2832 C.ar      12 UNK        -0.0782 
     15 C15        28.5131   23.1517    4.8092 C.3       12 UNK         0.0230 
     16 S16        27.2836   23.3437    3.4828 S.3       12 UNK        -0.2608 
     17 C17        26.5832   24.9972    3.7885 C.3       12 UNK        -0.0989 
     18 CA         27.5709   26.1925    3.7194 C.3       5 UNK         0.0716 
     19 N          28.4143   26.2148    2.5160 N.am      5 UNK        -0.4135 
     20 C          29.3857   27.1184    2.2983 C.2       4 UNK         0.5031 
     21 O          29.7351   27.9544    3.1293 O.2       4 UNK        -0.5229 
     22 CA         30.0402   27.1441    0.9076 C.3       4 UNK         0.0329 
     23 CB         31.2469   26.1929    0.8440 C.3       4 UNK        -0.2001 
     24 N          29.0840   26.8220   -0.1544 N.am      4 UNK        -0.4303 
     25 C          28.1239   27.6538   -0.5859 C.2       3 UNK         0.5044 
     26 O          27.9753   28.8002   -0.1693 O.2       3 UNK        -0.5152 
     27 CA         27.1292   27.1107   -1.6268 C.3       3 UNK         0.0319 
     28 CB         27.6910   27.2714   -3.0475 C.3       3 UNK        -0.2001 
     29 N          26.7722   25.7111   -1.3928 N.am      3 UNK        -0.4354 
     30 C          26.1089   25.2742   -0.3094 C.2       2 UNK         0.4964 
     31 O          25.6493   26.0218    0.5555 O.2       2 UNK        -0.5047 
     32 CA         25.9958   23.7472   -0.1253 C.3       2 UNK         0.0288 
     33 CB         24.7050   23.2219   -0.7733 C.3       2 UNK        -0.2113 
     34 N          27.1450   23.0066   -0.6607 N.am      2 UNK        -0.4145 
     35 C          28.4296   23.2281   -0.3358 C.2       1 UNK         0.5006 
     36 O          28.7663   23.9954    0.5637 O.2       1 UNK        -0.5103 
     37 C          26.7814   27.5101    3.8826 C.2       5 UNK         0.5055 
     38 O          26.7068   28.0398    4.9924 O.2       5 UNK        -0.5220 
     39 N          26.2079   28.0040    2.7742 N.am      6 UNK        -0.4450 
     40 CA         25.4888   29.2751    2.7017 C.3       6 UNK         0.0367 
     41 CB         24.6845   29.3403    1.3922 C.3       6 UNK        -0.1929 
     42 C          26.4308   30.4823    2.8434 C.2       6 UNK         0.5070 
     43 O          26.2640   31.2810    3.7663 O.2       6 UNK        -0.5237 
     44 N          27.4148   30.5954    1.9420 N.am      7 UNK        -0.4739 
     45 CA         28.4107   31.6677    1.9205 C.3       7 UNK         0.0276 
     46 CB         28.8687   31.9080    0.4689 C.3       7 UNK        -0.1927 
     47 C          29.5832   31.3382    2.8588 C.2       7 UNK         0.5013 
     48 O          30.7165   31.1784    2.4000 O.2       7 UNK        -0.5193 
     49 N          29.2929   31.2688    4.1666 N.am      8 UNK        -0.4253 
     50 CA         30.2252   30.9050    5.2442 C.3       8 UNK         0.0242 
     51 CB         29.4735   30.9167    6.5849 C.3       8 UNK        -0.2000 
     52 C          31.5042   31.7637    5.3321 C.2       8 UNK         0.4948 
     53 O          32.5001   31.3043    5.8915 O.2       8 UNK        -0.5275 
     54 N          31.4864   32.9644    4.7358 N.am      9 UNK        -0.4246 
     55 CA         32.6579   33.8183    4.5174 C.3       9 UNK         0.0261 
     56 CB         32.2007   35.1557    3.9125 C.3       9 UNK        -0.1959 
     57 C          33.7477   33.1723    3.6342 C.2       9 UNK         0.5033 
     58 O          34.9146   33.5449    3.7700 O.2       9 UNK        -0.5390 
     59 N          33.3716   32.2173    2.7656 N.am      10 UNK        -0.4215 
     60 CA         34.3087   31.4043    1.9833 C.3       10 UNK         0.0240 
     61 CB         33.5619   30.7198    0.8241 C.3       10 UNK        -0.1982 
     62 C          35.0327   30.3560    2.8468 C.2       10 UNK         0.4970 
     63 O          36.1946   30.0508    2.5690 O.2       10 UNK        -0.4916 
     64 N          34.3420   29.8298    3.8694 N.am      11 UNK        -0.4279 
     65 CA         34.8986   28.9046    4.8654 C.3       11 UNK         0.1003 
     66 C          35.7712   29.6451    5.9132 C.2       11 UNK         0.5709 
     67 N          35.3102   30.7703    6.4478 N.am      11 UNK        -0.7358 
     68 O          36.8686   29.1988    6.2386 O.2       11 UNK        -0.4999 
     69 C69        33.7942   28.0739    5.5684 C.3       12 UNK        -0.0954 
     70 S70        32.7950   27.0913    4.4019 S.3       12 UNK        -0.2268 
     71 C71        33.0300   25.4201    5.0686 C.3       12 UNK         0.0203 
     72 H72        28.3170   20.8324   -4.6323 H         1 UNK         0.0888 
     73 H73        27.0314   22.0093   -4.9129 H         1 UNK         0.0888 
     74 H74        28.6403   22.2801   -5.5893 H         1 UNK         0.0888 
     75 H75        29.1486   20.9770   -2.5542 H         1 UNK         0.3017 
     76 H76        30.1599   23.3947   -1.5199 H         1 UNK         0.0873 
     77 H77        30.6242   20.6772   -0.9741 H         1 UNK         0.0745 
     78 H78        29.8820   21.2047    0.5008 H         1 UNK         0.0745 
     79 H79        31.8200   20.6751    1.8599 H         1 UNK         0.0705 
     80 H80        33.3418   21.5175    1.9074 H         1 UNK         0.0705 
     81 H81        33.5910   23.6744    3.0431 H         1 UNK         0.1334 
     82 H82        30.4181   24.9364    5.6356 H         1 UNK         0.1417 
     83 H83        29.7717   21.7317    2.8605 H         1 UNK         0.1562 
     84 H84        28.2970   23.8433    5.6248 H         1 UNK         0.0748 
     85 H85        28.4174   22.1489    5.2278 H         1 UNK         0.0748 
     86 H86        26.0978   24.9738    4.7664 H         1 UNK         0.0940 
     87 H87        25.7752   25.1286    3.0665 H         1 UNK         0.0940 
     88 H88        28.2496   26.1179    4.5711 H         1 UNK         0.0703 
     89 H89        28.2595   25.4860    1.8262 H         1 UNK         0.3081 
     90 H90        30.4065   28.1590    0.7343 H         1 UNK         0.0719 
     91 H91        30.9804   25.1711    1.1144 H         1 UNK         0.0809 
     92 H92        31.6923   26.1741   -0.1503 H         1 UNK         0.0809 
     93 H93        32.0226   26.5114    1.5403 H         1 UNK         0.0809 
     94 H94        29.0796   25.8629   -0.4747 H         1 UNK         0.2990 
     95 H95        26.2157   27.7046   -1.5530 H         1 UNK         0.0690 
     96 H96        26.9684   26.9513   -3.7983 H         1 UNK         0.0788 
     97 H97        28.6016   26.6880   -3.1908 H         1 UNK         0.0788 
     98 H98        27.9348   28.3147   -3.2546 H         1 UNK         0.0788 
     99 H99        27.1353   25.0332   -2.0560 H         1 UNK         0.2993 
    100 H100       25.9444   23.5504    0.9458 H         1 UNK         0.0949 
    101 H101       23.8313   23.7434   -0.3787 H         1 UNK         0.0767 
    102 H102       24.7091   23.3631   -1.8552 H         1 UNK         0.0767 
    103 H103       24.5634   22.1596   -0.5723 H         1 UNK         0.0767 
    104 H104       26.9567   22.3639   -1.4159 H         1 UNK         0.3013 
    105 H105       26.2708   27.4646    1.9166 H         1 UNK         0.3121 
    106 H106       24.7797   29.3092    3.5317 H         1 UNK         0.0774 
    107 H107       24.1368   30.2806    1.3172 H         1 UNK         0.0815 
    108 H108       25.3256   29.2645    0.5134 H         1 UNK         0.0815 
    109 H109       23.9532   28.5336    1.3381 H         1 UNK         0.0815 
    110 H110       27.5260   29.8751    1.2292 H         1 UNK         0.2987 
    111 H111       27.9529   32.5938    2.2770 H         1 UNK         0.0949 
    112 H112       29.3837   31.0386    0.0572 H         1 UNK         0.0806 
    113 H113       28.0248   32.1369   -0.1823 H         1 UNK         0.0806 
    114 H114       29.5604   32.7495    0.4132 H         1 UNK         0.0806 
    115 H115       28.3195   31.3857    4.4267 H         1 UNK         0.3010 
    116 H116       30.5505   29.8810    5.0446 H         1 UNK         0.0829 
    117 H117       28.6343   30.2192    6.5736 H         1 UNK         0.0813 
    118 H118       30.1299   30.6181    7.4039 H         1 UNK         0.0813 
    119 H119       29.0855   31.9085    6.8215 H         1 UNK         0.0813 
    120 H120       30.6222   33.2616    4.3071 H         1 UNK         0.3038 
    121 H121       33.1066   34.0173    5.4934 H         1 UNK         0.0769 
    122 H122       31.7202   35.0165    2.9426 H         1 UNK         0.0811 
    123 H123       33.0491   35.8267    3.7625 H         1 UNK         0.0811 
    124 H124       31.4964   35.6694    4.5685 H         1 UNK         0.0811 
    125 H125       32.3869   31.9603    2.6968 H         1 UNK         0.3204 
    126 H126       35.0653   32.0675    1.5552 H         1 UNK         0.0748 
    127 H127       34.2548   30.1701    0.1840 H         1 UNK         0.0771 
    128 H128       32.8183   30.0060    1.1863 H         1 UNK         0.0771 
    129 H129       33.0483   31.4486    0.1966 H         1 UNK         0.0771 
    130 H130       33.4060   30.1619    4.0565 H         1 UNK         0.2980 
    131 H131       35.5505   28.2009    4.3431 H         1 UNK         0.0545 
    132 H132       35.8661   31.2658    7.1262 H         1 UNK         0.3459 
    133 H133       34.3718   31.0892    6.2228 H         1 UNK         0.3459 
    134 H134       33.1150   28.7220    6.1247 H         1 UNK         0.0616 
    135 H135       34.2432   27.4069    6.3066 H         1 UNK         0.0616 
    136 H136       34.0722   25.1251    4.9384 H         1 UNK         0.0634 
    137 H137       32.8422   25.4293    6.1433 H         1 UNK         0.0634 
@<TRIPOS>BOND
     1    1    2 1    
     2    1   72 1    
     3    1   73 1    
     4    1   74 1    
     5    2    3 2    
     6    2    4 am   BACKBONE|DICT|INTERRES
     7    4    5 1    
     8    4   75 1    
     9    5    6 1    
    10    5   35 1    
    11    5   76 1    
    12    6    7 1    
    13    6   77 1    
    14    6   78 1    
    15    7    8 1    
    16    8    9 1    
    17    8   79 1    
    18    8   80 1    
    19    9   10 ar   
    20    9   14 ar   
    21   10   11 ar   
    22   10   81 1    
    23   11   12 ar   
    24   11   71 1    
    25   12   13 ar   
    26   12   82 1    
    27   13   14 ar   
    28   13   15 1    
    29   14   83 1    
    30   15   16 1    
    31   15   84 1    
    32   15   85 1    
    33   16   17 1    
    34   17   18 1    
    35   17   86 1    
    36   17   87 1    
    37   18   19 1    
    38   18   37 1    
    39   18   88 1    
    40   19   20 am   BACKBONE|DICT|INTERRES
    41   19   89 1    
    42   20   21 2    
    43   20   22 1    
    44   22   23 1    
    45   22   24 1    
    46   22   90 1    
    47   23   91 1    
    48   23   92 1    
    49   23   93 1    
    50   24   25 am   BACKBONE|DICT|INTERRES
    51   24   94 1    
    52   25   26 2    
    53   25   27 1    
    54   27   28 1    
    55   27   29 1    
    56   27   95 1    
    57   28   96 1    
    58   28   97 1    
    59   28   98 1    
    60   29   30 am   BACKBONE|DICT|INTERRES
    61   29   99 1    
    62   30   31 2    
    63   30   32 1    
    64   32   33 1    
    65   32   34 1    
    66   32  100 1    
    67   33  101 1    
    68   33  102 1    
    69   33  103 1    
    70   34   35 am   BACKBONE|DICT|INTERRES
    71   34  104 1    
    72   35   36 2    
    73   37   38 2    
    74   37   39 am   BACKBONE|DICT|INTERRES
    75   39   40 1    
    76   39  105 1    
    77   40   41 1    
    78   40   42 1    
    79   40  106 1    
    80   41  107 1    
    81   41  108 1    
    82   41  109 1    
    83   42   43 2    
    84   42   44 am   BACKBONE|DICT|INTERRES
    85   44   45 1    
    86   44  110 1    
    87   45   46 1    
    88   45   47 1    
    89   45  111 1    
    90   46  112 1    
    91   46  113 1    
    92   46  114 1    
    93   47   48 2    
    94   47   49 am   BACKBONE|DICT|INTERRES
    95   49   50 1    
    96   49  115 1    
    97   50   51 1    
    98   50   52 1    
    99   50  116 1    
   100   51  117 1    
   101   51  118 1    
   102   51  119 1    
   103   52   53 2    
   104   52   54 am   BACKBONE|DICT|INTERRES
   105   54   55 1    
   106   54  120 1    
   107   55   56 1    
   108   55   57 1    
   109   55  121 1    
   110   56  122 1    
   111   56  123 1    
   112   56  124 1    
   113   57   58 2    
   114   57   59 am   BACKBONE|DICT|INTERRES
   115   59   60 1    
   116   59  125 1    
   117   60   61 1    
   118   60   62 1    
   119   60  126 1    
   120   61  127 1    
   121   61  128 1    
   122   61  129 1    
   123   62   63 2    
   124   62   64 am   BACKBONE|DICT|INTERRES
   125   64   65 1    
   126   64  130 1    
   127   65   66 1    
   128   65   69 1    
   129   65  131 1    
   130   66   67 am   BACKBONE|DICT|INTERRES
   131   66   68 2    
   132   67  132 1    
   133   67  133 1    
   134   69   70 1    
   135   69  134 1    
   136   69  135 1    
   137   70   71 1    
   138   71  136 1    
   139   71  137 1    
@<TRIPOS>SUBSTRUCTURE
     1 UNK         1 GROUP             0       ****    0 ROOT    
