@<TRIPOS>MOLECULE
3R136
137   139    1
SMALL
USER_CHARGES


@<TRIPOS>ATOM
      1 CA         29.0761   20.2233    0.2636 C.3       0 UNK        -0.1979 
      2 C          29.1851   21.1719   -0.9196 C.2       0 UNK         0.4864 
      3 O          29.0060   20.7515   -2.0638 O.2       0 UNK        -0.5359 
      4 N          29.4547   22.4573   -0.6583 N.am      1 UNK        -0.4318 
      5 CA         29.6109   23.5184   -1.6623 C.3       1 UNK         0.0824 
      6 C6         30.5840   24.6344   -1.1886 C.3       12 UNK        -0.0944 
      7 S7         32.2789   23.9976   -0.9342 S.3       12 UNK        -0.2672 
      8 C8         32.9118   25.0621    0.4152 C.3       12 UNK         0.0333 
      9 C9         32.2743   24.8681    1.7945 C.ar      12 UNK        -0.0807 
     10 C10        32.6077   25.7627    2.8158 C.ar      12 UNK        -0.0894 
     11 C11        32.0165   25.6662    4.0806 C.ar      12 UNK        -0.0804 
     12 C12        31.0782   24.6583    4.3265 C.ar      12 UNK        -0.0824 
     13 C13        30.7334   23.7564    3.3154 C.ar      12 UNK        -0.0762 
     14 C14        31.3621   23.8445    2.0721 C.ar      12 UNK        -0.0782 
     15 C15        29.6481   22.7121    3.5297 C.3       12 UNK         0.0230 
     16 S16        28.1506   23.1215    2.5643 S.3       12 UNK        -0.2608 
     17 C17        27.3958   24.4199    3.5980 C.3       12 UNK        -0.0989 
     18 CA         27.8823   25.8431    3.2315 C.3       5 UNK         0.0716 
     19 N          27.3828   26.3229    1.9383 N.am      5 UNK        -0.4135 
     20 C          27.7580   27.4911    1.3952 C.2       4 UNK         0.5031 
     21 O          28.6297   28.2048    1.8953 O.2       4 UNK        -0.5229 
     22 CA         27.0657   27.9760    0.1089 C.3       4 UNK         0.0329 
     23 CB         28.0993   28.3663   -0.9621 C.3       4 UNK        -0.2001 
     24 N          26.1014   27.0249   -0.4540 N.am      4 UNK        -0.4303 
     25 C          24.8200   26.9310   -0.0632 C.2       3 UNK         0.5044 
     26 O          24.3568   27.5763    0.8775 O.2       3 UNK        -0.5152 
     27 CA         23.8758   25.9953   -0.8452 C.3       3 UNK         0.0319 
     28 CB         22.7569   26.8040   -1.5248 C.3       3 UNK        -0.2001 
     29 N          24.5558   25.1968   -1.8657 N.am      3 UNK        -0.4354 
     30 C          25.1826   24.0371   -1.6376 C.2       2 UNK         0.4964 
     31 O          25.2178   23.4855   -0.5364 O.2       2 UNK        -0.5047 
     32 CA         25.9233   23.3902   -2.8266 C.3       2 UNK         0.0288 
     33 CB         25.7993   24.1658   -4.1595 C.3       2 UNK        -0.2113 
     34 N          27.3342   23.1575   -2.5031 N.am      2 UNK        -0.4145 
     35 C          28.2258   24.0634   -2.0725 C.2       1 UNK         0.5006 
     36 O          27.9739   25.2648   -1.9649 O.2       1 UNK        -0.5103 
     37 C          27.5367   26.8430    4.3538 C.2       5 UNK         0.5055 
     38 O          26.3685   27.2042    4.5078 O.2       5 UNK        -0.5220 
     39 N          28.5756   27.2770    5.0808 N.am      6 UNK        -0.4450 
     40 CA         28.5805   28.3196    6.1148 C.3       6 UNK         0.0367 
     41 CB         27.5647   28.0272    7.2404 C.3       6 UNK        -0.1929 
     42 C          28.4593   29.7584    5.5665 C.2       6 UNK         0.5070 
     43 O          28.3228   30.6825    6.3695 O.2       6 UNK        -0.5237 
     44 N          28.5332   29.9448    4.2396 N.am      7 UNK        -0.4739 
     45 CA         28.4362   31.2489    3.5740 C.3       7 UNK         0.0276 
     46 CB         27.0881   31.3333    2.8388 C.3       7 UNK        -0.1927 
     47 C          29.5947   31.5298    2.6007 C.2       7 UNK         0.5013 
     48 O          29.7982   32.6937    2.2542 O.2       7 UNK        -0.5193 
     49 N          30.3352   30.4972    2.1710 N.am      8 UNK        -0.4253 
     50 CA         31.3883   30.5212    1.1431 C.3       8 UNK         0.0242 
     51 CB         31.6836   29.0685    0.7156 C.3       8 UNK        -0.2000 
     52 C          32.6869   31.2800    1.5089 C.2       8 UNK         0.4948 
     53 O          33.7669   30.8609    1.0870 O.2       8 UNK        -0.5275 
     54 N          32.5785   32.3778    2.2707 N.am      9 UNK        -0.4246 
     55 CA         33.6159   33.3189    2.7270 C.3       9 UNK         0.0261 
     56 CB         34.2589   34.0578    1.5374 C.3       9 UNK        -0.1959 
     57 C          34.6942   32.7146    3.6460 C.2       9 UNK         0.5033 
     58 O          34.9463   33.2572    4.7227 O.2       9 UNK        -0.5390 
     59 N          35.2925   31.5947    3.2250 N.am      10 UNK        -0.4215 
     60 CA         36.3133   30.8279    3.9452 C.3       10 UNK         0.0240 
     61 CB         36.9030   29.7747    2.9927 C.3       10 UNK        -0.1982 
     62 C          35.7979   30.1584    5.2325 C.2       10 UNK         0.4970 
     63 O          36.6112   29.7526    6.0635 O.2       10 UNK        -0.4916 
     64 N          34.4707   30.0541    5.3740 N.am      11 UNK        -0.4279 
     65 CA         33.7756   29.5139    6.5491 C.3       11 UNK         0.1003 
     66 C          33.9326   30.3619    7.8459 C.2       11 UNK         0.5709 
     67 N          34.3477   31.6220    7.7715 N.am      11 UNK        -0.7358 
     68 O          33.6732   29.8636    8.9384 O.2       11 UNK        -0.4999 
     69 C69        32.2738   29.2497    6.2599 C.3       12 UNK        -0.0954 
     70 S70        31.9473   28.3580    4.7021 S.3       12 UNK        -0.2268 
     71 C71        32.3882   26.6579    5.1734 C.3       12 UNK         0.0203 
     72 H72        28.0301   20.0706    0.5280 H         1 UNK         0.0888 
     73 H73        29.5117   19.2560    0.0147 H         1 UNK         0.0888 
     74 H74        29.5992   20.6097    1.1369 H         1 UNK         0.0888 
     75 H75        29.4809   22.7652    0.3029 H         1 UNK         0.3017 
     76 H76        30.0412   23.0824   -2.5668 H         1 UNK         0.0873 
     77 H77        30.6450   25.4318   -1.9318 H         1 UNK         0.0745 
     78 H78        30.2170   25.1012   -0.2723 H         1 UNK         0.0745 
     79 H79        32.7955   26.1036    0.1112 H         1 UNK         0.0705 
     80 H80        33.9843   24.8862    0.5072 H         1 UNK         0.0705 
     81 H81        33.3213   26.5526    2.6235 H         1 UNK         0.1334 
     82 H82        30.6027   24.5855    5.2953 H         1 UNK         0.1417 
     83 H83        31.1072   23.1229    1.3143 H         1 UNK         0.1562 
     84 H84        29.3975   22.6117    4.5868 H         1 UNK         0.0748 
     85 H85        30.0225   21.7373    3.2157 H         1 UNK         0.0748 
     86 H86        27.6125   24.1887    4.6431 H         1 UNK         0.0940 
     87 H87        26.3104   24.3538    3.5023 H         1 UNK         0.0940 
     88 H88        28.9670   25.8210    3.1329 H         1 UNK         0.0703 
     89 H89        26.6582   25.7817    1.4922 H         1 UNK         0.3081 
     90 H90        26.5259   28.8871    0.3740 H         1 UNK         0.0719 
     91 H91        28.6792   29.2320   -0.6398 H         1 UNK         0.0809 
     92 H92        27.6210   28.6335   -1.9043 H         1 UNK         0.0809 
     93 H93        28.8069   27.5607   -1.1579 H         1 UNK         0.0809 
     94 H94        26.4521   26.4171   -1.1878 H         1 UNK         0.2990 
     95 H95        23.4122   25.3248   -0.1183 H         1 UNK         0.0690 
     96 H96        22.0508   26.1509   -2.0381 H         1 UNK         0.0788 
     97 H97        23.1548   27.5099   -2.2551 H         1 UNK         0.0788 
     98 H98        22.1877   27.3790   -0.7929 H         1 UNK         0.0788 
     99 H99        24.5958   25.5874   -2.7964 H         1 UNK         0.2993 
    100 H100       25.4690   22.4083   -2.9678 H         1 UNK         0.0949 
    101 H101       24.7568   24.2698   -4.4637 H         1 UNK         0.0767 
    102 H102       26.2350   25.1641   -4.1008 H         1 UNK         0.0767 
    103 H103       26.3095   23.6359   -4.9641 H         1 UNK         0.0767 
    104 H104       27.6427   22.1901   -2.5175 H         1 UNK         0.3013 
    105 H105       29.4940   26.9382    4.8274 H         1 UNK         0.3121 
    106 H106       29.5673   28.2646    6.5718 H         1 UNK         0.0774 
    107 H107       27.7279   28.6886    8.0921 H         1 UNK         0.0815 
    108 H108       26.5362   28.1788    6.9124 H         1 UNK         0.0815 
    109 H109       27.6564   27.0043    7.6051 H         1 UNK         0.0815 
    110 H110       28.6114   29.1369    3.6295 H         1 UNK         0.2987 
    111 H111       28.4668   32.0524    4.3129 H         1 UNK         0.0949 
    112 H112       26.2530   31.2147    3.5293 H         1 UNK         0.0806 
    113 H113       26.9679   32.3001    2.3479 H         1 UNK         0.0806 
    114 H114       26.9999   30.5641    2.0719 H         1 UNK         0.0806 
    115 H115       30.0449   29.5709    2.4592 H         1 UNK         0.3010 
    116 H116       30.9749   31.0394    0.2757 H         1 UNK         0.0829 
    117 H117       30.7842   28.5539    0.3814 H         1 UNK         0.0813 
    118 H118       32.3913   29.0315   -0.1136 H         1 UNK         0.0813 
    119 H119       32.1100   28.4916    1.5363 H         1 UNK         0.0813 
    120 H120       31.6250   32.6401    2.5119 H         1 UNK         0.3038 
    121 H121       33.0868   34.0648    3.3225 H         1 UNK         0.0769 
    122 H122       34.7978   33.3791    0.8755 H         1 UNK         0.0811 
    123 H123       34.9722   34.8070    1.8835 H         1 UNK         0.0811 
    124 H124       33.5076   34.5774    0.9426 H         1 UNK         0.0811 
    125 H125       34.9598   31.2120    2.3386 H         1 UNK         0.3204 
    126 H126       37.1082   31.5182    4.2346 H         1 UNK         0.0748 
    127 H127       37.6899   29.1989    3.4820 H         1 UNK         0.0771 
    128 H128       36.1431   29.0689    2.6538 H         1 UNK         0.0771 
    129 H129       37.3446   30.2402    2.1113 H         1 UNK         0.0771 
    130 H130       33.8799   30.3958    4.6322 H         1 UNK         0.2980 
    131 H131       34.2400   28.5503    6.7659 H         1 UNK         0.0545 
    132 H132       34.5614   32.0422    6.8786 H         1 UNK         0.3459 
    133 H133       34.4474   32.1589    8.6183 H         1 UNK         0.3459 
    134 H134       31.7298   30.1947    6.2045 H         1 UNK         0.0616 
    135 H135       31.8260   28.6913    7.0835 H         1 UNK         0.0616 
    136 H136       33.4615   26.6023    5.3596 H         1 UNK         0.0634 
    137 H137       31.8926   26.4038    6.1116 H         1 UNK         0.0634 
@<TRIPOS>BOND
     1    1    2 1    
     2    1   72 1    
     3    1   73 1    
     4    1   74 1    
     5    2    3 2    
     6    2    4 am   BACKBONE|DICT|INTERRES
     7    4    5 1    
     8    4   75 1    
     9    5    6 1    
    10    5   35 1    
    11    5   76 1    
    12    6    7 1    
    13    6   77 1    
    14    6   78 1    
    15    7    8 1    
    16    8    9 1    
    17    8   79 1    
    18    8   80 1    
    19    9   10 ar   
    20    9   14 ar   
    21   10   11 ar   
    22   10   81 1    
    23   11   12 ar   
    24   11   71 1    
    25   12   13 ar   
    26   12   82 1    
    27   13   14 ar   
    28   13   15 1    
    29   14   83 1    
    30   15   16 1    
    31   15   84 1    
    32   15   85 1    
    33   16   17 1    
    34   17   18 1    
    35   17   86 1    
    36   17   87 1    
    37   18   19 1    
    38   18   37 1    
    39   18   88 1    
    40   19   20 am   BACKBONE|DICT|INTERRES
    41   19   89 1    
    42   20   21 2    
    43   20   22 1    
    44   22   23 1    
    45   22   24 1    
    46   22   90 1    
    47   23   91 1    
    48   23   92 1    
    49   23   93 1    
    50   24   25 am   BACKBONE|DICT|INTERRES
    51   24   94 1    
    52   25   26 2    
    53   25   27 1    
    54   27   28 1    
    55   27   29 1    
    56   27   95 1    
    57   28   96 1    
    58   28   97 1    
    59   28   98 1    
    60   29   30 am   BACKBONE|DICT|INTERRES
    61   29   99 1    
    62   30   31 2    
    63   30   32 1    
    64   32   33 1    
    65   32   34 1    
    66   32  100 1    
    67   33  101 1    
    68   33  102 1    
    69   33  103 1    
    70   34   35 am   BACKBONE|DICT|INTERRES
    71   34  104 1    
    72   35   36 2    
    73   37   38 2    
    74   37   39 am   BACKBONE|DICT|INTERRES
    75   39   40 1    
    76   39  105 1    
    77   40   41 1    
    78   40   42 1    
    79   40  106 1    
    80   41  107 1    
    81   41  108 1    
    82   41  109 1    
    83   42   43 2    
    84   42   44 am   BACKBONE|DICT|INTERRES
    85   44   45 1    
    86   44  110 1    
    87   45   46 1    
    88   45   47 1    
    89   45  111 1    
    90   46  112 1    
    91   46  113 1    
    92   46  114 1    
    93   47   48 2    
    94   47   49 am   BACKBONE|DICT|INTERRES
    95   49   50 1    
    96   49  115 1    
    97   50   51 1    
    98   50   52 1    
    99   50  116 1    
   100   51  117 1    
   101   51  118 1    
   102   51  119 1    
   103   52   53 2    
   104   52   54 am   BACKBONE|DICT|INTERRES
   105   54   55 1    
   106   54  120 1    
   107   55   56 1    
   108   55   57 1    
   109   55  121 1    
   110   56  122 1    
   111   56  123 1    
   112   56  124 1    
   113   57   58 2    
   114   57   59 am   BACKBONE|DICT|INTERRES
   115   59   60 1    
   116   59  125 1    
   117   60   61 1    
   118   60   62 1    
   119   60  126 1    
   120   61  127 1    
   121   61  128 1    
   122   61  129 1    
   123   62   63 2    
   124   62   64 am   BACKBONE|DICT|INTERRES
   125   64   65 1    
   126   64  130 1    
   127   65   66 1    
   128   65   69 1    
   129   65  131 1    
   130   66   67 am   BACKBONE|DICT|INTERRES
   131   66   68 2    
   132   67  132 1    
   133   67  133 1    
   134   69   70 1    
   135   69  134 1    
   136   69  135 1    
   137   70   71 1    
   138   71  136 1    
   139   71  137 1    
@<TRIPOS>SUBSTRUCTURE
     1 UNK         1 GROUP             0       ****    0 ROOT    
