@<TRIPOS>MOLECULE
3R136
137   139    1
SMALL
USER_CHARGES


@<TRIPOS>ATOM
      1 CA         33.3377   26.3201   -0.4945 C.3       0 UNK        -0.1979 
      2 C          32.2488   25.8465    0.4572 C.2       0 UNK         0.4864 
      3 O          32.4421   25.8938    1.6715 O.2       0 UNK        -0.5359 
      4 N          31.1193   25.3866   -0.0947 N.am      1 UNK        -0.4318 
      5 CA         29.9222   24.9507    0.6264 C.3       1 UNK         0.0824 
      6 C6         30.1461   23.6800    1.4966 C.3       12 UNK        -0.0944 
      7 S7         28.6723   23.1515    2.4422 S.3       12 UNK        -0.2672 
      8 C8         29.1060   23.6595    4.1362 C.3       12 UNK         0.0333 
      9 C9         28.8549   25.1428    4.3600 C.ar      12 UNK        -0.0807 
     10 C10        29.8454   26.0818    4.0625 C.ar      12 UNK        -0.0894 
     11 C11        29.6206   27.4462    4.2660 C.ar      12 UNK        -0.0804 
     12 C12        28.3899   27.8702    4.7771 C.ar      12 UNK        -0.0824 
     13 C13        27.3866   26.9396    5.0713 C.ar      12 UNK        -0.0762 
     14 C14        27.6283   25.5777    4.8680 C.ar      12 UNK        -0.0782 
     15 C15        26.0268   27.3999    5.5765 C.3       12 UNK         0.0230 
     16 S16        24.7386   27.2088    4.2998 S.3       12 UNK        -0.2608 
     17 C17        25.3051   28.3936    3.0326 C.3       12 UNK        -0.0989 
     18 CA         26.1454   27.7171    1.9122 C.3       5 UNK         0.0716 
     19 N          25.4355   26.6603    1.1842 N.am      5 UNK        -0.4135 
     20 C          24.3757   26.8122    0.3781 C.2       4 UNK         0.5031 
     21 O          23.7961   27.8852    0.2028 O.2       4 UNK        -0.5229 
     22 CA         23.8806   25.5673   -0.3784 C.3       4 UNK         0.0329 
     23 CB         23.7030   25.8585   -1.8807 C.3       4 UNK        -0.2001 
     24 N          24.7824   24.4214   -0.2282 N.am      4 UNK        -0.4303 
     25 C          24.3964   23.1564   -0.0064 C.2       3 UNK         0.5044 
     26 O          23.2262   22.8285    0.1982 O.2       3 UNK        -0.5152 
     27 CA         25.4980   22.0710   -0.0156 C.3       3 UNK         0.0319 
     28 CB         24.9836   20.7062   -0.5210 C.3       3 UNK        -0.2001 
     29 N          26.7140   22.4729   -0.7364 N.am      3 UNK        -0.4354 
     30 C          26.8247   22.8244   -2.0290 C.2       2 UNK         0.4964 
     31 O          25.9130   22.7062   -2.8484 O.2       2 UNK        -0.5047 
     32 CA         28.1635   23.4520   -2.4797 C.3       2 UNK         0.0288 
     33 CB         27.9368   24.6356   -3.4451 C.3       2 UNK        -0.2113 
     34 N          29.0565   23.8581   -1.3807 N.am      2 UNK        -0.4145 
     35 C          28.8047   24.7509   -0.4074 C.2       1 UNK         0.5006 
     36 O          27.7486   25.3800   -0.3025 O.2       1 UNK        -0.5103 
     37 C          26.8010   28.7331    0.9524 C.2       5 UNK         0.5055 
     38 O          26.7051   29.9436    1.1673 O.2       5 UNK        -0.5220 
     39 N          27.4594   28.2181   -0.0952 N.am      6 UNK        -0.4450 
     40 CA         28.3299   28.9930   -0.9783 C.3       6 UNK         0.0367 
     41 CB         28.5916   28.1911   -2.2634 C.3       6 UNK        -0.1929 
     42 C          29.6523   29.3238   -0.2659 C.2       6 UNK         0.5070 
     43 O          30.1052   28.5352    0.5652 O.2       6 UNK        -0.5237 
     44 N          30.2519   30.4645   -0.6337 N.am      7 UNK        -0.4739 
     45 CA         31.4555   31.0634   -0.0365 C.3       7 UNK         0.0276 
     46 CB         32.6739   30.1191   -0.1668 C.3       7 UNK        -0.1927 
     47 C          31.2243   31.5461    1.4127 C.2       7 UNK         0.5013 
     48 O          30.0813   31.6311    1.8679 O.2       7 UNK        -0.5193 
     49 N          32.3150   31.9010    2.0983 N.am      8 UNK        -0.4253 
     50 CA         32.3541   32.3944    3.4718 C.3       8 UNK         0.0242 
     51 CB         31.8237   33.8416    3.5387 C.3       8 UNK        -0.2000 
     52 C          33.8058   32.3264    3.9598 C.2       8 UNK         0.4948 
     53 O          34.7138   32.1385    3.1437 O.2       8 UNK        -0.5275 
     54 N          33.9984   32.4932    5.2756 N.am      9 UNK        -0.4246 
     55 CA         35.2655   32.6020    6.0202 C.3       9 UNK         0.0261 
     56 CB         36.0742   33.8329    5.5646 C.3       9 UNK        -0.1959 
     57 C          36.1508   31.3409    6.0298 C.2       9 UNK         0.5033 
     58 O          36.7044   31.0095    7.0789 O.2       9 UNK        -0.5390 
     59 N          36.2777   30.6650    4.8823 N.am      10 UNK        -0.4215 
     60 CA         37.0115   29.4085    4.7169 C.3       10 UNK         0.0240 
     61 CB         37.2138   29.1318    3.2180 C.3       10 UNK        -0.1982 
     62 C          36.3095   28.2205    5.3963 C.2       10 UNK         0.4970 
     63 O          36.9884   27.3322    5.9134 O.2       10 UNK        -0.4916 
     64 N          34.9717   28.2279    5.3774 N.am      11 UNK        -0.4279 
     65 CA         34.1138   27.2552    6.0614 C.3       11 UNK         0.1003 
     66 C          34.0450   27.4805    7.5977 C.2       11 UNK         0.5709 
     67 N          33.7292   26.4416    8.3598 N.am      11 UNK        -0.7358 
     68 O          34.2479   28.5826    8.1042 O.2       11 UNK        -0.4999 
     69 C69        32.7093   27.1843    5.4086 C.3       12 UNK        -0.0954 
     70 S70        31.8267   28.7820    5.3012 S.3       12 UNK        -0.2268 
     71 C71        30.6989   28.4609    3.9080 C.3       12 UNK         0.0203 
     72 H72        32.9436   26.5335   -1.4878 H         1 UNK         0.0888 
     73 H73        33.8013   27.2298   -0.1148 H         1 UNK         0.0888 
     74 H74        34.1116   25.5588   -0.5866 H         1 UNK         0.0888 
     75 H75        31.0246   25.4088   -1.1007 H         1 UNK         0.3017 
     76 H76        29.6179   25.7745    1.2754 H         1 UNK         0.0873 
     77 H77        30.4652   22.8413    0.8758 H         1 UNK         0.0745 
     78 H78        30.9666   23.8396    2.1954 H         1 UNK         0.0745 
     79 H79        30.1460   23.4096    4.3518 H         1 UNK         0.0705 
     80 H80        28.5074   23.0751    4.8366 H         1 UNK         0.0705 
     81 H81        30.7930   25.7509    3.6625 H         1 UNK         0.1334 
     82 H82        28.2089   28.9258    4.9267 H         1 UNK         0.1417 
     83 H83        26.8508   24.8583    5.0877 H         1 UNK         0.1562 
     84 H84        26.0620   28.4391    5.9071 H         1 UNK         0.0748 
     85 H85        25.7486   26.8103    6.4512 H         1 UNK         0.0748 
     86 H86        25.8808   29.1783    3.5268 H         1 UNK         0.0940 
     87 H87        24.4314   28.8912    2.6091 H         1 UNK         0.0940 
     88 H88        26.9870   27.2130    2.3862 H         1 UNK         0.0703 
     89 H89        25.8422   25.7399    1.2619 H         1 UNK         0.3081 
     90 H90        22.9027   25.3299    0.0452 H         1 UNK         0.0719 
     91 H91        22.9991   26.6751   -2.0461 H         1 UNK         0.0809 
     92 H92        24.6478   26.1389   -2.3482 H         1 UNK         0.0809 
     93 H93        23.3152   24.9874   -2.4093 H         1 UNK         0.0809 
     94 H94        25.7663   24.6008   -0.3987 H         1 UNK         0.2990 
     95 H95        25.7967   21.9437    1.0260 H         1 UNK         0.0690 
     96 H96        24.5922   20.7711   -1.5366 H         1 UNK         0.0788 
     97 H97        24.1787   20.3316    0.1126 H         1 UNK         0.0788 
     98 H98        25.7746   19.9564   -0.5129 H         1 UNK         0.0788 
     99 H99        27.5289   22.6037   -0.1533 H         1 UNK         0.2993 
    100 H100       28.6893   22.6697   -3.0294 H         1 UNK         0.0949 
    101 H101       27.3279   25.4170   -2.9897 H         1 UNK         0.0767 
    102 H102       28.8806   25.0827   -3.7570 H         1 UNK         0.0767 
    103 H103       27.4211   24.3115   -4.3499 H         1 UNK         0.0767 
    104 H104       29.9393   23.3658   -1.3493 H         1 UNK         0.3013 
    105 H105       27.5149   27.2061   -0.1808 H         1 UNK         0.3121 
    106 H106       27.8217   29.9232   -1.2415 H         1 UNK         0.0774 
    107 H107       29.1917   28.7683   -2.9678 H         1 UNK         0.0815 
    108 H108       29.1318   27.2666   -2.0598 H         1 UNK         0.0815 
    109 H109       27.6599   27.9333   -2.7670 H         1 UNK         0.0815 
    110 H110       29.7828   31.0425   -1.3173 H         1 UNK         0.2987 
    111 H111       31.6647   31.9584   -0.6246 H         1 UNK         0.0949 
    112 H112       32.7392   29.6898   -1.1667 H         1 UNK         0.0806 
    113 H113       33.6103   30.6481    0.0124 H         1 UNK         0.0806 
    114 H114       32.6241   29.2961    0.5472 H         1 UNK         0.0806 
    115 H115       33.2344   31.7949    1.6853 H         1 UNK         0.3010 
    116 H116       31.7433   31.7425    4.0999 H         1 UNK         0.0829 
    117 H117       30.7848   33.9045    3.2152 H         1 UNK         0.0813 
    118 H118       31.8620   34.2327    4.5561 H         1 UNK         0.0813 
    119 H119       32.4097   34.5125    2.9092 H         1 UNK         0.0813 
    120 H120       33.1724   32.5944    5.8500 H         1 UNK         0.3038 
    121 H121       34.9739   32.7749    7.0577 H         1 UNK         0.0769 
    122 H122       35.4858   34.7467    5.6478 H         1 UNK         0.0811 
    123 H123       36.9642   33.9639    6.1817 H         1 UNK         0.0811 
    124 H124       36.4088   33.7429    4.5307 H         1 UNK         0.0811 
    125 H125       35.8064   31.0541    4.0660 H         1 UNK         0.3204 
    126 H126       37.9935   29.5242    5.1806 H         1 UNK         0.0748 
    127 H127       37.7758   29.9344    2.7397 H         1 UNK         0.0771 
    128 H128       37.7737   28.2083    3.0634 H         1 UNK         0.0771 
    129 H129       36.2630   29.0299    2.6930 H         1 UNK         0.0771 
    130 H130       34.4941   29.0143    4.9653 H         1 UNK         0.2980 
    131 H131       34.5735   26.2751    5.9177 H         1 UNK         0.0545 
    132 H132       33.5506   25.5341    7.9591 H         1 UNK         0.3459 
    133 H133       33.6686   26.5688    9.3579 H         1 UNK         0.3459 
    134 H134       32.8208   26.7900    4.3974 H         1 UNK         0.0616 
    135 H135       32.0742   26.4706    5.9361 H         1 UNK         0.0616 
    136 H136       31.2715   28.1180    3.0446 H         1 UNK         0.0634 
    137 H137       30.2352   29.4008    3.6057 H         1 UNK         0.0634 
@<TRIPOS>BOND
     1    1    2 1    
     2    1   72 1    
     3    1   73 1    
     4    1   74 1    
     5    2    3 2    
     6    2    4 am   BACKBONE|DICT|INTERRES
     7    4    5 1    
     8    4   75 1    
     9    5    6 1    
    10    5   35 1    
    11    5   76 1    
    12    6    7 1    
    13    6   77 1    
    14    6   78 1    
    15    7    8 1    
    16    8    9 1    
    17    8   79 1    
    18    8   80 1    
    19    9   10 ar   
    20    9   14 ar   
    21   10   11 ar   
    22   10   81 1    
    23   11   12 ar   
    24   11   71 1    
    25   12   13 ar   
    26   12   82 1    
    27   13   14 ar   
    28   13   15 1    
    29   14   83 1    
    30   15   16 1    
    31   15   84 1    
    32   15   85 1    
    33   16   17 1    
    34   17   18 1    
    35   17   86 1    
    36   17   87 1    
    37   18   19 1    
    38   18   37 1    
    39   18   88 1    
    40   19   20 am   BACKBONE|DICT|INTERRES
    41   19   89 1    
    42   20   21 2    
    43   20   22 1    
    44   22   23 1    
    45   22   24 1    
    46   22   90 1    
    47   23   91 1    
    48   23   92 1    
    49   23   93 1    
    50   24   25 am   BACKBONE|DICT|INTERRES
    51   24   94 1    
    52   25   26 2    
    53   25   27 1    
    54   27   28 1    
    55   27   29 1    
    56   27   95 1    
    57   28   96 1    
    58   28   97 1    
    59   28   98 1    
    60   29   30 am   BACKBONE|DICT|INTERRES
    61   29   99 1    
    62   30   31 2    
    63   30   32 1    
    64   32   33 1    
    65   32   34 1    
    66   32  100 1    
    67   33  101 1    
    68   33  102 1    
    69   33  103 1    
    70   34   35 am   BACKBONE|DICT|INTERRES
    71   34  104 1    
    72   35   36 2    
    73   37   38 2    
    74   37   39 am   BACKBONE|DICT|INTERRES
    75   39   40 1    
    76   39  105 1    
    77   40   41 1    
    78   40   42 1    
    79   40  106 1    
    80   41  107 1    
    81   41  108 1    
    82   41  109 1    
    83   42   43 2    
    84   42   44 am   BACKBONE|DICT|INTERRES
    85   44   45 1    
    86   44  110 1    
    87   45   46 1    
    88   45   47 1    
    89   45  111 1    
    90   46  112 1    
    91   46  113 1    
    92   46  114 1    
    93   47   48 2    
    94   47   49 am   BACKBONE|DICT|INTERRES
    95   49   50 1    
    96   49  115 1    
    97   50   51 1    
    98   50   52 1    
    99   50  116 1    
   100   51  117 1    
   101   51  118 1    
   102   51  119 1    
   103   52   53 2    
   104   52   54 am   BACKBONE|DICT|INTERRES
   105   54   55 1    
   106   54  120 1    
   107   55   56 1    
   108   55   57 1    
   109   55  121 1    
   110   56  122 1    
   111   56  123 1    
   112   56  124 1    
   113   57   58 2    
   114   57   59 am   BACKBONE|DICT|INTERRES
   115   59   60 1    
   116   59  125 1    
   117   60   61 1    
   118   60   62 1    
   119   60  126 1    
   120   61  127 1    
   121   61  128 1    
   122   61  129 1    
   123   62   63 2    
   124   62   64 am   BACKBONE|DICT|INTERRES
   125   64   65 1    
   126   64  130 1    
   127   65   66 1    
   128   65   69 1    
   129   65  131 1    
   130   66   67 am   BACKBONE|DICT|INTERRES
   131   66   68 2    
   132   67  132 1    
   133   67  133 1    
   134   69   70 1    
   135   69  134 1    
   136   69  135 1    
   137   70   71 1    
   138   71  136 1    
   139   71  137 1    
@<TRIPOS>SUBSTRUCTURE
     1 UNK         1 GROUP             0       ****    0 ROOT    
