@<TRIPOS>MOLECULE
3R136
137   139    1
SMALL
USER_CHARGES


@<TRIPOS>ATOM
      1 CA         30.5412   24.0138    5.3451 C.3       0 UNK        -0.1979 
      2 C          29.2265   23.4439    4.8368 C.2       0 UNK         0.4864 
      3 O          28.2385   23.4472    5.5718 O.2       0 UNK        -0.5359 
      4 N          29.2060   22.9453    3.5919 N.am      1 UNK        -0.4318 
      5 CA         28.0249   22.3363    2.9668 C.3       1 UNK         0.0824 
      6 C6         28.4111   21.3657    1.8212 C.3       12 UNK        -0.0944 
      7 S7         29.1507   22.1603    0.3501 S.3       12 UNK        -0.2672 
      8 C8         30.9378   21.8762    0.5692 C.3       12 UNK         0.0333 
      9 C9         31.6934   23.1912    0.7017 C.ar      12 UNK        -0.0807 
     10 C10        32.3809   23.5072    1.8789 C.ar      12 UNK        -0.0894 
     11 C11        33.0803   24.7144    1.9884 C.ar      12 UNK        -0.0804 
     12 C12        33.0990   25.5992    0.9061 C.ar      12 UNK        -0.0824 
     13 C13        32.4130   25.2962   -0.2725 C.ar      12 UNK        -0.0762 
     14 C14        31.7172   24.0890   -0.3710 C.ar      12 UNK        -0.0782 
     15 C15        32.4275   26.2770   -1.4345 C.3       12 UNK         0.0230 
     16 S16        31.3160   27.6847   -1.1299 S.3       12 UNK        -0.2608 
     17 C17        29.6674   26.9240   -1.3323 C.3       12 UNK        -0.0989 
     18 CA         28.6388   27.9310   -1.9076 C.3       5 UNK         0.0716 
     19 N          27.4796   27.2465   -2.4788 N.am      5 UNK        -0.4135 
     20 C          26.7764   27.7023   -3.5255 C.2       4 UNK         0.5031 
     21 O          27.0540   28.7373   -4.1338 O.2       4 UNK        -0.5229 
     22 CA         25.5718   26.8689   -4.0029 C.3       4 UNK         0.0329 
     23 CB         25.9720   25.9830   -5.1941 C.3       4 UNK        -0.2001 
     24 N          24.9933   26.0278   -2.9553 N.am      4 UNK        -0.4303 
     25 C          24.2563   26.4837   -1.9347 C.2       3 UNK         0.5044 
     26 O          23.9211   27.6615   -1.8021 O.2       3 UNK        -0.5152 
     27 CA         23.8368   25.4620   -0.8621 C.3       3 UNK         0.0319 
     28 CB         23.8351   23.9943   -1.3496 C.3       3 UNK        -0.2001 
     29 N          24.6518   25.6089    0.3475 N.am      3 UNK        -0.4354 
     30 C          25.9856   25.4962    0.4451 C.2       2 UNK         0.4964 
     31 O          26.7253   25.2112   -0.5001 O.2       2 UNK        -0.5047 
     32 CA         26.6187   25.7669    1.8225 C.3       2 UNK         0.0288 
     33 CB         25.6281   26.2353    2.9138 C.3       2 UNK        -0.2113 
     34 N          27.4046   24.6209    2.2873 N.am      2 UNK        -0.4145 
     35 C          26.9662   23.3746    2.5301 C.2       1 UNK         0.5006 
     36 O          25.7883   23.0234    2.4343 O.2       1 UNK        -0.5103 
     37 C          28.1769   28.9270   -0.8288 C.2       5 UNK         0.5055 
     38 O          27.2964   28.6046   -0.0272 O.2       5 UNK        -0.5220 
     39 N          28.8393   30.0887   -0.7694 N.am      6 UNK        -0.4450 
     40 CA         28.7411   31.0499    0.3298 C.3       6 UNK         0.0367 
     41 CB         29.0589   32.4595   -0.2025 C.3       6 UNK        -0.1929 
     42 C          29.6872   30.6152    1.4646 C.2       6 UNK         0.5070 
     43 O          30.7089   31.2585    1.7007 O.2       6 UNK        -0.5237 
     44 N          29.3509   29.4873    2.1031 N.am      7 UNK        -0.4739 
     45 CA         30.1746   28.7948    3.0999 C.3       7 UNK         0.0276 
     46 CB         29.5834   27.3958    3.3359 C.3       7 UNK        -0.1927 
     47 C          30.3356   29.5404    4.4368 C.2       7 UNK         0.5013 
     48 O          31.3043   29.2811    5.1540 O.2       7 UNK        -0.5193 
     49 N          29.3846   30.4327    4.7541 N.am      8 UNK        -0.4253 
     50 CA         29.3402   31.2459    5.9729 C.3       8 UNK         0.0242 
     51 CB         28.1024   32.1572    5.9319 C.3       8 UNK        -0.2000 
     52 C          30.6241   32.0719    6.1542 C.2       8 UNK         0.4948 
     53 O          30.9572   32.8728    5.2785 O.2       8 UNK        -0.5275 
     54 N          31.3483   31.8093    7.2509 N.am      9 UNK        -0.4246 
     55 CA         32.6750   32.3263    7.6243 C.3       9 UNK         0.0261 
     56 CB         32.6678   33.8601    7.7770 C.3       9 UNK        -0.1959 
     57 C          33.8307   31.8658    6.7119 C.2       9 UNK         0.5033 
     58 O          34.9232   31.6155    7.2228 O.2       9 UNK        -0.5390 
     59 N          33.5821   31.7411    5.4013 N.am      10 UNK        -0.4215 
     60 CA         34.5372   31.3436    4.3621 C.3       10 UNK         0.0240 
     61 CB         33.8304   31.3399    2.9984 C.3       10 UNK        -0.1982 
     62 C          35.2212   29.9880    4.6070 C.2       10 UNK         0.4970 
     63 O          36.4058   29.8551    4.2958 O.2       10 UNK        -0.4916 
     64 N          34.4838   29.0218    5.1697 N.am      11 UNK        -0.4279 
     65 CA         35.0188   27.7096    5.5717 C.3       11 UNK         0.1003 
     66 C          35.8777   27.7329    6.8722 C.2       11 UNK         0.5709 
     67 N          35.9958   28.8452    7.5895 N.am      11 UNK        -0.7358 
     68 O          36.4636   26.7154    7.2350 O.2       11 UNK        -0.4999 
     69 C69        33.9133   26.6247    5.6496 C.3       12 UNK        -0.0954 
     70 S70        32.9721   26.4652    4.0997 S.3       12 UNK        -0.2268 
     71 C71        33.8072   25.0791    3.2746 C.3       12 UNK         0.0203 
     72 H72        31.3045   24.0242    4.5702 H         1 UNK         0.0888 
     73 H73        30.4016   25.0353    5.6972 H         1 UNK         0.0888 
     74 H74        30.9121   23.4165    6.1773 H         1 UNK         0.0888 
     75 H75        30.0371   22.9748    3.0194 H         1 UNK         0.3017 
     76 H76        27.5389   21.7272    3.7328 H         1 UNK         0.0873 
     77 H77        29.0792   20.5909    2.1993 H         1 UNK         0.0745 
     78 H78        27.5214   20.8294    1.4858 H         1 UNK         0.0745 
     79 H79        31.1263   21.2313    1.4282 H         1 UNK         0.0705 
     80 H80        31.3147   21.3371   -0.3011 H         1 UNK         0.0705 
     81 H81        32.3784   22.8126    2.7076 H         1 UNK         0.1334 
     82 H82        33.6318   26.5368    0.9902 H         1 UNK         0.1417 
     83 H83        31.1842   23.8471   -1.2807 H         1 UNK         0.1562 
     84 H84        32.1560   25.7850   -2.3698 H         1 UNK         0.0748 
     85 H85        33.4415   26.6546   -1.5739 H         1 UNK         0.0748 
     86 H86        29.3376   26.5040   -0.3793 H         1 UNK         0.0940 
     87 H87        29.7651   26.0760   -2.0119 H         1 UNK         0.0940 
     88 H88        29.1300   28.4894   -2.7081 H         1 UNK         0.0703 
     89 H89        27.1455   26.4359   -1.9648 H         1 UNK         0.3081 
     90 H90        24.8046   27.5681   -4.3429 H         1 UNK         0.0719 
     91 H91        26.7322   25.2515   -4.9171 H         1 UNK         0.0809 
     92 H92        25.1136   25.4423   -5.5933 H         1 UNK         0.0809 
     93 H93        26.3802   26.5846   -6.0077 H         1 UNK         0.0809 
     94 H94        25.2411   25.0487   -2.9632 H         1 UNK         0.2990 
     95 H95        22.8130   25.7145   -0.5818 H         1 UNK         0.0690 
     96 H96        23.2209   23.8777   -2.2436 H         1 UNK         0.0788 
     97 H97        23.4178   23.3351   -0.5882 H         1 UNK         0.0788 
     98 H98        24.8346   23.6259   -1.5825 H         1 UNK         0.0788 
     99 H99        24.1469   25.8713    1.1823 H         1 UNK         0.2993 
    100 H100       27.3278   26.5770    1.6572 H         1 UNK         0.0949 
    101 H101       26.1503   26.4487    3.8466 H         1 UNK         0.0767 
    102 H102       25.1214   27.1550    2.6180 H         1 UNK         0.0767 
    103 H103       24.8660   25.4863    3.1323 H         1 UNK         0.0767 
    104 H104       28.3999   24.7716    2.3542 H         1 UNK         0.3013 
    105 H105       29.5894   30.2451   -1.4282 H         1 UNK         0.3121 
    106 H106       27.7224   31.0618    0.7239 H         1 UNK         0.0774 
    107 H107       30.0635   32.5190   -0.6233 H         1 UNK         0.0815 
    108 H108       28.9960   33.1996    0.5963 H         1 UNK         0.0815 
    109 H109       28.3528   32.7586   -0.9773 H         1 UNK         0.0815 
    110 H110       28.5067   29.0176    1.7989 H         1 UNK         0.2987 
    111 H111       31.1773   28.6758    2.6826 H         1 UNK         0.0949 
    112 H112       28.5352   27.4449    3.6311 H         1 UNK         0.0806 
    113 H113       29.6658   26.7811    2.4396 H         1 UNK         0.0806 
    114 H114       30.1123   26.8735    4.1322 H         1 UNK         0.0806 
    115 H115       28.6505   30.5867    4.0796 H         1 UNK         0.3010 
    116 H116       29.2336   30.5618    6.8174 H         1 UNK         0.0829 
    117 H117       27.1818   31.5768    5.8673 H         1 UNK         0.0813 
    118 H118       28.0372   32.7668    6.8342 H         1 UNK         0.0813 
    119 H119       28.1315   32.8387    5.0804 H         1 UNK         0.0813 
    120 H120       30.9923   31.0963    7.8733 H         1 UNK         0.3038 
    121 H121       32.8805   31.9051    8.6099 H         1 UNK         0.0769 
    122 H122       33.6235   34.2147    8.1654 H         1 UNK         0.0811 
    123 H123       32.4998   34.3668    6.8263 H         1 UNK         0.0811 
    124 H124       31.8946   34.1861    8.4726 H         1 UNK         0.0811 
    125 H125       32.6503   32.0051    5.0912 H         1 UNK         0.3204 
    126 H126       35.3194   32.1048    4.3407 H         1 UNK         0.0748 
    127 H127       34.5294   31.1063    2.1942 H         1 UNK         0.0771 
    128 H128       33.0338   30.5957    2.9638 H         1 UNK         0.0771 
    129 H129       33.3887   32.3109    2.7728 H         1 UNK         0.0771 
    130 H130       33.5016   29.1878    5.3569 H         1 UNK         0.2980 
    131 H131       35.7069   27.3913    4.7863 H         1 UNK         0.0545 
    132 H132       36.5625   28.8295    8.4221 H         1 UNK         0.3459 
    133 H133       35.5509   29.7108    7.3044 H         1 UNK         0.3459 
    134 H134       34.3363   25.6512    5.9040 H         1 UNK         0.0616 
    135 H135       33.2054   26.8664    6.4444 H         1 UNK         0.0616 
    136 H136       34.8378   25.3576    3.0503 H         1 UNK         0.0634 
    137 H137       33.8501   24.2246    3.9515 H         1 UNK         0.0634 
@<TRIPOS>BOND
     1    1    2 1    
     2    1   72 1    
     3    1   73 1    
     4    1   74 1    
     5    2    3 2    
     6    2    4 am   BACKBONE|DICT|INTERRES
     7    4    5 1    
     8    4   75 1    
     9    5    6 1    
    10    5   35 1    
    11    5   76 1    
    12    6    7 1    
    13    6   77 1    
    14    6   78 1    
    15    7    8 1    
    16    8    9 1    
    17    8   79 1    
    18    8   80 1    
    19    9   10 ar   
    20    9   14 ar   
    21   10   11 ar   
    22   10   81 1    
    23   11   12 ar   
    24   11   71 1    
    25   12   13 ar   
    26   12   82 1    
    27   13   14 ar   
    28   13   15 1    
    29   14   83 1    
    30   15   16 1    
    31   15   84 1    
    32   15   85 1    
    33   16   17 1    
    34   17   18 1    
    35   17   86 1    
    36   17   87 1    
    37   18   19 1    
    38   18   37 1    
    39   18   88 1    
    40   19   20 am   BACKBONE|DICT|INTERRES
    41   19   89 1    
    42   20   21 2    
    43   20   22 1    
    44   22   23 1    
    45   22   24 1    
    46   22   90 1    
    47   23   91 1    
    48   23   92 1    
    49   23   93 1    
    50   24   25 am   BACKBONE|DICT|INTERRES
    51   24   94 1    
    52   25   26 2    
    53   25   27 1    
    54   27   28 1    
    55   27   29 1    
    56   27   95 1    
    57   28   96 1    
    58   28   97 1    
    59   28   98 1    
    60   29   30 am   BACKBONE|DICT|INTERRES
    61   29   99 1    
    62   30   31 2    
    63   30   32 1    
    64   32   33 1    
    65   32   34 1    
    66   32  100 1    
    67   33  101 1    
    68   33  102 1    
    69   33  103 1    
    70   34   35 am   BACKBONE|DICT|INTERRES
    71   34  104 1    
    72   35   36 2    
    73   37   38 2    
    74   37   39 am   BACKBONE|DICT|INTERRES
    75   39   40 1    
    76   39  105 1    
    77   40   41 1    
    78   40   42 1    
    79   40  106 1    
    80   41  107 1    
    81   41  108 1    
    82   41  109 1    
    83   42   43 2    
    84   42   44 am   BACKBONE|DICT|INTERRES
    85   44   45 1    
    86   44  110 1    
    87   45   46 1    
    88   45   47 1    
    89   45  111 1    
    90   46  112 1    
    91   46  113 1    
    92   46  114 1    
    93   47   48 2    
    94   47   49 am   BACKBONE|DICT|INTERRES
    95   49   50 1    
    96   49  115 1    
    97   50   51 1    
    98   50   52 1    
    99   50  116 1    
   100   51  117 1    
   101   51  118 1    
   102   51  119 1    
   103   52   53 2    
   104   52   54 am   BACKBONE|DICT|INTERRES
   105   54   55 1    
   106   54  120 1    
   107   55   56 1    
   108   55   57 1    
   109   55  121 1    
   110   56  122 1    
   111   56  123 1    
   112   56  124 1    
   113   57   58 2    
   114   57   59 am   BACKBONE|DICT|INTERRES
   115   59   60 1    
   116   59  125 1    
   117   60   61 1    
   118   60   62 1    
   119   60  126 1    
   120   61  127 1    
   121   61  128 1    
   122   61  129 1    
   123   62   63 2    
   124   62   64 am   BACKBONE|DICT|INTERRES
   125   64   65 1    
   126   64  130 1    
   127   65   66 1    
   128   65   69 1    
   129   65  131 1    
   130   66   67 am   BACKBONE|DICT|INTERRES
   131   66   68 2    
   132   67  132 1    
   133   67  133 1    
   134   69   70 1    
   135   69  134 1    
   136   69  135 1    
   137   70   71 1    
   138   71  136 1    
   139   71  137 1    
@<TRIPOS>SUBSTRUCTURE
     1 UNK         1 GROUP             0       ****    0 ROOT    
