@<TRIPOS>MOLECULE
3R136
137   139    1
SMALL
USER_CHARGES


@<TRIPOS>ATOM
      1 CA         25.5188   24.5664    3.6105 C.3       0 UNK        -0.1979 
      2 C          25.6409   23.1236    4.0990 C.2       0 UNK         0.4864 
      3 O          24.8531   22.7240    4.9554 O.2       0 UNK        -0.5359 
      4 N          26.5880   22.3010    3.6219 N.am      1 UNK        -0.4318 
      5 CA         27.5913   22.5279    2.5724 C.3       1 UNK         0.0824 
      6 C6         28.6209   23.6419    2.8915 C.3       12 UNK        -0.0944 
      7 S7         29.5837   23.3746    4.4132 S.3       12 UNK        -0.2672 
      8 C8         31.0725   22.5559    3.7495 C.3       12 UNK         0.0333 
      9 C9         32.0019   23.4980    2.9869 C.ar      12 UNK        -0.0807 
     10 C10        32.9848   24.2188    3.6732 C.ar      12 UNK        -0.0894 
     11 C11        33.9231   24.9865    2.9749 C.ar      12 UNK        -0.0804 
     12 C12        33.8471   25.0620    1.5811 C.ar      12 UNK        -0.0824 
     13 C13        32.8535   24.3713    0.8806 C.ar      12 UNK        -0.0762 
     14 C14        31.9424   23.5821    1.5898 C.ar      12 UNK        -0.0782 
     15 C15        32.8293   24.3968   -0.6447 C.3       12 UNK         0.0230 
     16 S16        32.7849   26.0851   -1.3370 S.3       12 UNK        -0.2608 
     17 C17        31.0107   26.3553   -1.6647 C.3       12 UNK        -0.0989 
     18 CA         30.3889   27.3915   -0.6970 C.3       5 UNK         0.0716 
     19 N          29.2140   28.0361   -1.2748 N.am      5 UNK        -0.4135 
     20 C          28.8992   29.3254   -1.0910 C.2       4 UNK         0.5031 
     21 O          29.6458   30.1380   -0.5459 O.2       4 UNK        -0.5229 
     22 CA         27.5203   29.8024   -1.5819 C.3       4 UNK         0.0329 
     23 CB         27.6418   30.4698   -2.9613 C.3       4 UNK        -0.2001 
     24 N          26.5165   28.7383   -1.6486 N.am      4 UNK        -0.4303 
     25 C          26.0052   28.0884   -0.5934 C.2       3 UNK         0.5044 
     26 O          26.2945   28.3408    0.5759 O.2       3 UNK        -0.5152 
     27 CA         25.0021   26.9571   -0.8892 C.3       3 UNK         0.0319 
     28 CB         24.3069   27.0849   -2.2644 C.3       3 UNK        -0.2001 
     29 N          25.5994   25.6240   -0.7449 N.am      3 UNK        -0.4354 
     30 C          26.6866   25.1459   -1.3695 C.2       2 UNK         0.4964 
     31 O          27.4041   25.8095   -2.1228 O.2       2 UNK        -0.5047 
     32 CA         27.0131   23.6730   -1.0874 C.3       2 UNK         0.0288 
     33 CB         28.1086   23.1086   -2.0122 C.3       2 UNK        -0.2113 
     34 N          27.4400   23.5261    0.3029 N.am      2 UNK        -0.4145 
     35 C          26.9402   22.6338    1.1715 C.2       1 UNK         0.5006 
     36 O          26.0037   21.8793    0.8977 O.2       1 UNK        -0.5103 
     37 C          29.9297   26.7706    0.6284 C.2       5 UNK         0.5055 
     38 O          29.3476   25.6843    0.6208 O.2       5 UNK        -0.5220 
     39 N          30.1345   27.5001    1.7276 N.am      6 UNK        -0.4450 
     40 CA         29.7618   27.1053    3.0786 C.3       6 UNK         0.0367 
     41 CB         28.2594   27.3614    3.3056 C.3       6 UNK        -0.1929 
     42 C          30.5828   27.9343    4.0598 C.2       6 UNK         0.5070 
     43 O          30.9160   29.0780    3.7432 O.2       6 UNK        -0.5237 
     44 N          30.8360   27.3901    5.2562 N.am      7 UNK        -0.4739 
     45 CA         31.5573   28.0729    6.3391 C.3       7 UNK         0.0276 
     46 CB         31.7613   27.1032    7.5127 C.3       7 UNK        -0.1927 
     47 C          30.8728   29.3695    6.8094 C.2       7 UNK         0.5013 
     48 O          31.5608   30.3429    7.1167 O.2       7 UNK        -0.5193 
     49 N          29.5322   29.3864    6.7752 N.am      8 UNK        -0.4253 
     50 CA         28.6933   30.5630    7.0296 C.3       8 UNK         0.0242 
     51 CB         27.2227   30.1213    7.1068 C.3       8 UNK        -0.2000 
     52 C          28.8602   31.6880    5.9874 C.2       8 UNK         0.4948 
     53 O          28.5632   32.8412    6.2997 O.2       8 UNK        -0.5275 
     54 N          29.3435   31.3420    4.7867 N.am      9 UNK        -0.4246 
     55 CA         29.6746   32.2596    3.6957 C.3       9 UNK         0.0261 
     56 CB         29.0296   31.7274    2.4028 C.3       9 UNK        -0.1959 
     57 C          31.2010   32.4223    3.5420 C.2       9 UNK         0.5033 
     58 O          31.6549   32.8757    2.4897 O.2       9 UNK        -0.5390 
     59 N          31.9705   32.0302    4.5722 N.am      10 UNK        -0.4215 
     60 CA         33.4370   32.0419    4.6492 C.3       10 UNK         0.0240 
     61 CB         33.9713   33.4904    4.6686 C.3       10 UNK        -0.1982 
     62 C          34.1268   31.1637    3.5842 C.2       10 UNK         0.4970 
     63 O          35.2613   31.4557    3.2014 O.2       10 UNK        -0.4916 
     64 N          33.4383   30.1044    3.1355 N.am      11 UNK        -0.4279 
     65 CA         33.8871   29.1272    2.1298 C.3       11 UNK         0.1003 
     66 C          34.0786   29.7215    0.7012 C.2       11 UNK         0.5709 
     67 N          33.4741   30.8594    0.3770 N.am      11 UNK        -0.7358 
     68 O          34.7578   29.1348   -0.1373 O.2       11 UNK        -0.4999 
     69 C69        35.0942   28.2789    2.6219 C.3       12 UNK        -0.0954 
     70 S70        34.7151   27.3815    4.1683 S.3       12 UNK        -0.2268 
     71 C71        35.0705   25.6560    3.7203 C.3       12 UNK         0.0203 
     72 H72        26.1627   25.2142    4.2035 H         1 UNK         0.0888 
     73 H73        25.7702   24.6899    2.5602 H         1 UNK         0.0888 
     74 H74        24.4945   24.9168    3.7357 H         1 UNK         0.0888 
     75 H75        26.5949   21.3585    3.9848 H         1 UNK         0.3017 
     76 H76        28.1562   21.5956    2.5261 H         1 UNK         0.0873 
     77 H77        28.1365   24.6114    2.9590 H         1 UNK         0.0745 
     78 H78        29.3362   23.7211    2.0810 H         1 UNK         0.0745 
     79 H79        30.7718   21.7225    3.1126 H         1 UNK         0.0705 
     80 H80        31.6175   22.1091    4.5824 H         1 UNK         0.0705 
     81 H81        33.0501   24.1416    4.7501 H         1 UNK         0.1334 
     82 H82        34.5818   25.6318    1.0302 H         1 UNK         0.1417 
     83 H83        31.2062   23.0059    1.0470 H         1 UNK         0.1562 
     84 H84        31.9974   23.8104   -1.0371 H         1 UNK         0.0748 
     85 H85        33.7351   23.9069   -1.0042 H         1 UNK         0.0748 
     86 H86        30.4612   25.4141   -1.6749 H         1 UNK         0.0940 
     87 H87        30.9473   26.7312   -2.6872 H         1 UNK         0.0940 
     88 H88        31.1488   28.1476   -0.4848 H         1 UNK         0.0703 
     89 H89        28.5209   27.4087   -1.6736 H         1 UNK         0.3081 
     90 H90        27.1650   30.5505   -0.8699 H         1 UNK         0.0719 
     91 H91        28.3636   31.2875   -2.9360 H         1 UNK         0.0809 
     92 H92        27.9753   29.7645   -3.7236 H         1 UNK         0.0809 
     93 H93        26.6897   30.8911   -3.2846 H         1 UNK         0.0809 
     94 H94        26.2340   28.4370   -2.5701 H         1 UNK         0.2990 
     95 H95        24.2273   27.0339   -0.1246 H         1 UNK         0.0690 
     96 H96        23.5057   26.3523   -2.3630 H         1 UNK         0.0788 
     97 H97        24.9942   26.9277   -3.0964 H         1 UNK         0.0788 
     98 H98        23.8530   28.0694   -2.3875 H         1 UNK         0.0788 
     99 H99        25.1136   25.0025   -0.1138 H         1 UNK         0.2993 
    100 H100       26.0967   23.1098   -1.2771 H         1 UNK         0.0949 
    101 H101       27.8493   23.2516   -3.0620 H         1 UNK         0.0767 
    102 H102       29.0697   23.5919   -1.8410 H         1 UNK         0.0767 
    103 H103       28.2428   22.0384   -1.8543 H         1 UNK         0.0767 
    104 H104       28.1683   24.1781    0.5930 H         1 UNK         0.3013 
    105 H105       30.5865   28.4040    1.6680 H         1 UNK         0.3121 
    106 H106       30.0084   26.0531    3.2202 H         1 UNK         0.0774 
    107 H107       27.6447   26.8424    2.5705 H         1 UNK         0.0815 
    108 H108       27.9472   27.0208    4.2931 H         1 UNK         0.0815 
    109 H109       28.0181   28.4230    3.2316 H         1 UNK         0.0815 
    110 H110       30.5256   26.4461    5.4405 H         1 UNK         0.2987 
    111 H111       32.5397   28.3541    5.9547 H         1 UNK         0.0949 
    112 H112       32.3370   26.2291    7.2071 H         1 UNK         0.0806 
    113 H113       32.3112   27.5830    8.3237 H         1 UNK         0.0806 
    114 H114       30.8120   26.7557    7.9221 H         1 UNK         0.0806 
    115 H115       29.0563   28.5370    6.5083 H         1 UNK         0.3010 
    116 H116       28.9814   30.9743    7.9995 H         1 UNK         0.0829 
    117 H117       27.0688   29.3863    7.8972 H         1 UNK         0.0813 
    118 H118       26.5715   30.9690    7.3255 H         1 UNK         0.0813 
    119 H119       26.8821   29.6834    6.1676 H         1 UNK         0.0813 
    120 H120       29.6119   30.3773    4.6260 H         1 UNK         0.3038 
    121 H121       29.2673   33.2523    3.8964 H         1 UNK         0.0769 
    122 H122       29.2083   32.4004    1.5632 H         1 UNK         0.0811 
    123 H123       27.9497   31.6255    2.5095 H         1 UNK         0.0811 
    124 H124       29.4306   30.7517    2.1264 H         1 UNK         0.0811 
    125 H125       31.5092   31.6407    5.3865 H         1 UNK         0.3204 
    126 H126       33.6871   31.5885    5.6095 H         1 UNK         0.0748 
    127 H127       35.0416   33.5117    4.8775 H         1 UNK         0.0771 
    128 H128       33.8171   33.9911    3.7122 H         1 UNK         0.0771 
    129 H129       33.4815   34.0834    5.4409 H         1 UNK         0.0771 
    130 H130       32.5010   29.9367    3.4932 H         1 UNK         0.2980 
    131 H131       33.0524   28.4362    2.0109 H         1 UNK         0.0545 
    132 H132       33.5914   31.2321   -0.5512 H         1 UNK         0.3459 
    133 H133       32.9155   31.3589    1.0550 H         1 UNK         0.3459 
    134 H134       35.3985   27.5640    1.8586 H         1 UNK         0.0616 
    135 H135       35.9661   28.9106    2.7953 H         1 UNK         0.0616 
    136 H136       35.9868   25.6090    3.1300 H         1 UNK         0.0634 
    137 H137       35.2812   25.1041    4.6376 H         1 UNK         0.0634 
@<TRIPOS>BOND
     1    1    2 1    
     2    1   72 1    
     3    1   73 1    
     4    1   74 1    
     5    2    3 2    
     6    2    4 am   BACKBONE|DICT|INTERRES
     7    4    5 1    
     8    4   75 1    
     9    5    6 1    
    10    5   35 1    
    11    5   76 1    
    12    6    7 1    
    13    6   77 1    
    14    6   78 1    
    15    7    8 1    
    16    8    9 1    
    17    8   79 1    
    18    8   80 1    
    19    9   10 ar   
    20    9   14 ar   
    21   10   11 ar   
    22   10   81 1    
    23   11   12 ar   
    24   11   71 1    
    25   12   13 ar   
    26   12   82 1    
    27   13   14 ar   
    28   13   15 1    
    29   14   83 1    
    30   15   16 1    
    31   15   84 1    
    32   15   85 1    
    33   16   17 1    
    34   17   18 1    
    35   17   86 1    
    36   17   87 1    
    37   18   19 1    
    38   18   37 1    
    39   18   88 1    
    40   19   20 am   BACKBONE|DICT|INTERRES
    41   19   89 1    
    42   20   21 2    
    43   20   22 1    
    44   22   23 1    
    45   22   24 1    
    46   22   90 1    
    47   23   91 1    
    48   23   92 1    
    49   23   93 1    
    50   24   25 am   BACKBONE|DICT|INTERRES
    51   24   94 1    
    52   25   26 2    
    53   25   27 1    
    54   27   28 1    
    55   27   29 1    
    56   27   95 1    
    57   28   96 1    
    58   28   97 1    
    59   28   98 1    
    60   29   30 am   BACKBONE|DICT|INTERRES
    61   29   99 1    
    62   30   31 2    
    63   30   32 1    
    64   32   33 1    
    65   32   34 1    
    66   32  100 1    
    67   33  101 1    
    68   33  102 1    
    69   33  103 1    
    70   34   35 am   BACKBONE|DICT|INTERRES
    71   34  104 1    
    72   35   36 2    
    73   37   38 2    
    74   37   39 am   BACKBONE|DICT|INTERRES
    75   39   40 1    
    76   39  105 1    
    77   40   41 1    
    78   40   42 1    
    79   40  106 1    
    80   41  107 1    
    81   41  108 1    
    82   41  109 1    
    83   42   43 2    
    84   42   44 am   BACKBONE|DICT|INTERRES
    85   44   45 1    
    86   44  110 1    
    87   45   46 1    
    88   45   47 1    
    89   45  111 1    
    90   46  112 1    
    91   46  113 1    
    92   46  114 1    
    93   47   48 2    
    94   47   49 am   BACKBONE|DICT|INTERRES
    95   49   50 1    
    96   49  115 1    
    97   50   51 1    
    98   50   52 1    
    99   50  116 1    
   100   51  117 1    
   101   51  118 1    
   102   51  119 1    
   103   52   53 2    
   104   52   54 am   BACKBONE|DICT|INTERRES
   105   54   55 1    
   106   54  120 1    
   107   55   56 1    
   108   55   57 1    
   109   55  121 1    
   110   56  122 1    
   111   56  123 1    
   112   56  124 1    
   113   57   58 2    
   114   57   59 am   BACKBONE|DICT|INTERRES
   115   59   60 1    
   116   59  125 1    
   117   60   61 1    
   118   60   62 1    
   119   60  126 1    
   120   61  127 1    
   121   61  128 1    
   122   61  129 1    
   123   62   63 2    
   124   62   64 am   BACKBONE|DICT|INTERRES
   125   64   65 1    
   126   64  130 1    
   127   65   66 1    
   128   65   69 1    
   129   65  131 1    
   130   66   67 am   BACKBONE|DICT|INTERRES
   131   66   68 2    
   132   67  132 1    
   133   67  133 1    
   134   69   70 1    
   135   69  134 1    
   136   69  135 1    
   137   70   71 1    
   138   71  136 1    
   139   71  137 1    
@<TRIPOS>SUBSTRUCTURE
     1 UNK         1 GROUP             0       ****    0 ROOT    
