@<TRIPOS>MOLECULE
3R136
137   139    1
SMALL
USER_CHARGES


@<TRIPOS>ATOM
      1 CA         29.1073   18.6602    2.1112 C.3       0 UNK        -0.1979 
      2 C          28.4972   19.6414    1.1213 C.2       0 UNK         0.4864 
      3 O          27.6370   19.2555    0.3289 O.2       0 UNK        -0.5359 
      4 N          28.9324   20.9083    1.1642 N.am      1 UNK        -0.4318 
      5 CA         28.4774   21.9818    0.2685 C.3       1 UNK         0.0824 
      6 C6         29.5058   23.1371    0.1787 C.3       12 UNK        -0.0944 
      7 S7         31.0819   22.5817   -0.5516 S.3       12 UNK        -0.2672 
      8 C8         32.2689   22.9277    0.7893 C.3       12 UNK         0.0333 
      9 C9         32.4673   24.4178    1.0528 C.ar      12 UNK        -0.0807 
     10 C10        32.4615   24.9024    2.3638 C.ar      12 UNK        -0.0894 
     11 C11        32.6885   26.2576    2.6260 C.ar      12 UNK        -0.0804 
     12 C12        32.9035   27.1391    1.5610 C.ar      12 UNK        -0.0824 
     13 C13        32.8870   26.6713    0.2427 C.ar      12 UNK        -0.0762 
     14 C14        32.6871   25.3096   -0.0019 C.ar      12 UNK        -0.0782 
     15 C15        33.0730   27.6290   -0.9277 C.3       12 UNK         0.0230 
     16 S16        31.7244   28.8486   -1.0725 S.3       12 UNK        -0.2608 
     17 C17        30.2190   27.8398   -0.8246 C.3       12 UNK        -0.0989 
     18 CA         28.9428   28.4018   -1.5043 C.3       5 UNK         0.0716 
     19 N          27.8091   27.5074   -1.2679 N.am      5 UNK        -0.4135 
     20 C          26.6175   27.5765   -1.8772 C.2       4 UNK         0.5031 
     21 O          26.3684   28.3412   -2.8106 O.2       4 UNK        -0.5229 
     22 CA         25.5156   26.6280   -1.3665 C.3       4 UNK         0.0329 
     23 CB         25.3778   25.4165   -2.3023 C.3       4 UNK        -0.2001 
     24 N          25.7463   26.1629    0.0077 N.am      4 UNK        -0.4303 
     25 C          25.5638   26.9247    1.0997 C.2       3 UNK         0.5044 
     26 O          25.1179   28.0718    1.0506 O.2       3 UNK        -0.5152 
     27 CA         25.9729   26.3321    2.4675 C.3       3 UNK         0.0319 
     28 CB         25.1779   26.9367    3.6445 C.3       3 UNK        -0.2001 
     29 N          25.9602   24.8658    2.5211 N.am      3 UNK        -0.4354 
     30 C          24.9084   24.0506    2.3468 C.2       2 UNK         0.4964 
     31 O          23.7530   24.4453    2.1822 O.2       2 UNK        -0.5047 
     32 CA         25.2150   22.5362    2.3313 C.3       2 UNK         0.0288 
     33 CB         24.1402   21.7286    1.5721 C.3       2 UNK        -0.2113 
     34 N          26.5540   22.1934    1.8203 N.am      2 UNK        -0.4145 
     35 C          27.0781   22.5273    0.6275 C.2       1 UNK         0.5006 
     36 O          26.5114   23.2681   -0.1767 O.2       1 UNK        -0.5103 
     37 C          28.6014   29.8251   -1.0127 C.2       5 UNK         0.5055 
     38 O          28.0544   29.9793    0.0807 O.2       5 UNK        -0.5220 
     39 N          28.9833   30.8427   -1.7962 N.am      6 UNK        -0.4450 
     40 CA         28.8462   32.2592   -1.4361 C.3       6 UNK         0.0367 
     41 CB         29.1367   33.1256   -2.6722 C.3       6 UNK        -0.1929 
     42 C          29.7481   32.6828   -0.2598 C.2       6 UNK         0.5070 
     43 O          29.4382   33.6638    0.4158 O.2       6 UNK        -0.5237 
     44 N          30.8336   31.9331   -0.0309 N.am      7 UNK        -0.4739 
     45 CA         31.7990   32.1278    1.0495 C.3       7 UNK         0.0276 
     46 CB         33.2196   32.1166    0.4541 C.3       7 UNK        -0.1927 
     47 C          31.6384   31.0699    2.1565 C.2       7 UNK         0.5013 
     48 O          32.6058   30.8007    2.8680 O.2       7 UNK        -0.5193 
     49 N          30.4340   30.4948    2.3176 N.am      8 UNK        -0.4253 
     50 CA         30.1121   29.4683    3.3234 C.3       8 UNK         0.0242 
     51 CB         28.6351   29.0638    3.2034 C.3       8 UNK        -0.2000 
     52 C          30.4422   29.8550    4.7796 C.2       8 UNK         0.4948 
     53 O          30.7500   28.9758    5.5845 O.2       8 UNK        -0.5275 
     54 N          30.4202   31.1606    5.0813 N.am      9 UNK        -0.4246 
     55 CA         30.8289   31.7359    6.3641 C.3       9 UNK         0.0261 
     56 CB         30.4538   33.2264    6.3881 C.3       9 UNK        -0.1959 
     57 C          32.3245   31.5554    6.6924 C.2       9 UNK         0.5033 
     58 O          32.6752   31.5877    7.8732 O.2       9 UNK        -0.5390 
     59 N          33.1818   31.3510    5.6772 N.am      10 UNK        -0.4215 
     60 CA         34.6295   31.1614    5.8406 C.3       10 UNK         0.0240 
     61 CB         35.3177   31.1990    4.4665 C.3       10 UNK        -0.1982 
     62 C          35.0069   29.8717    6.5913 C.2       10 UNK         0.4970 
     63 O          36.0946   29.8121    7.1663 O.2       10 UNK        -0.4916 
     64 N          34.1068   28.8806    6.5913 N.am      11 UNK        -0.4279 
     65 CA         34.2240   27.6489    7.3832 C.3       11 UNK         0.1003 
     66 C          33.8683   27.8328    8.8895 C.2       11 UNK         0.5709 
     67 N          33.3799   28.9857    9.3364 N.am      11 UNK        -0.7358 
     68 O          34.0530   26.9080    9.6774 O.2       11 UNK        -0.4999 
     69 C69        33.4150   26.4874    6.7508 C.3       12 UNK        -0.0954 
     70 S70        33.9878   26.0488    5.0735 S.3       12 UNK        -0.2268 
     71 C71        32.6602   26.7673    4.0592 C.3       12 UNK         0.0203 
     72 H72        29.8517   19.1344    2.7505 H         1 UNK         0.0888 
     73 H73        29.5913   17.8425    1.5777 H         1 UNK         0.0888 
     74 H74        28.3310   18.2386    2.7492 H         1 UNK         0.0888 
     75 H75        29.6528   21.1632    1.8245 H         1 UNK         0.3017 
     76 H76        28.3760   21.5565   -0.7328 H         1 UNK         0.0873 
     77 H77        29.6793   23.5802    1.1611 H         1 UNK         0.0745 
     78 H78        29.1313   23.9436   -0.4553 H         1 UNK         0.0745 
     79 H79        31.9406   22.4112    1.6926 H         1 UNK         0.0705 
     80 H80        33.2328   22.4938    0.5205 H         1 UNK         0.0705 
     81 H81        32.2937   24.2236    3.1890 H         1 UNK         0.1334 
     82 H82        33.0616   28.1924    1.7520 H         1 UNK         0.1417 
     83 H83        32.6907   24.9408   -1.0186 H         1 UNK         0.1562 
     84 H84        33.1458   27.0810   -1.8684 H         1 UNK         0.0748 
     85 H85        34.0185   28.1604   -0.8106 H         1 UNK         0.0748 
     86 H86        30.0641   27.7291    0.2509 H         1 UNK         0.0940 
     87 H87        30.4131   26.8361   -1.2066 H         1 UNK         0.0940 
     88 H88        29.1146   28.4368   -2.5824 H         1 UNK         0.0703 
     89 H89        27.9014   26.8620   -0.4996 H         1 UNK         0.3081 
     90 H90        24.5727   27.1787   -1.3878 H         1 UNK         0.0719 
     91 H91        26.3053   24.8460   -2.3641 H         1 UNK         0.0809 
     92 H92        24.5911   24.7410   -1.9653 H         1 UNK         0.0809 
     93 H93        25.1228   25.7329   -3.3146 H         1 UNK         0.0809 
     94 H94        26.0595   25.2021    0.1131 H         1 UNK         0.2990 
     95 H95        27.0163   26.6159    2.6050 H         1 UNK         0.0690 
     96 H96        25.5018   26.5201    4.5983 H         1 UNK         0.0788 
     97 H97        24.1071   26.7565    3.5449 H         1 UNK         0.0788 
     98 H98        25.3214   28.0165    3.7007 H         1 UNK         0.0788 
     99 H99        26.8614   24.4294    2.6550 H         1 UNK         0.2993 
    100 H100       25.1918   22.2177    3.3747 H         1 UNK         0.0949 
    101 H101       23.1555   21.8605    2.0224 H         1 UNK         0.0767 
    102 H102       24.0665   22.0387    0.5289 H         1 UNK         0.0767 
    103 H103       24.3611   20.6612    1.5889 H         1 UNK         0.0767 
    104 H104       27.1122   21.6021    2.4199 H         1 UNK         0.3013 
    105 H105       29.4384   30.6391   -2.6750 H         1 UNK         0.3121 
    106 H106       27.8114   32.4313   -1.1319 H         1 UNK         0.0774 
    107 H107       28.4552   32.8927   -3.4905 H         1 UNK         0.0815 
    108 H108       30.1570   32.9875   -3.0323 H         1 UNK         0.0815 
    109 H109       29.0135   34.1852   -2.4429 H         1 UNK         0.0815 
    110 H110       30.9900   31.1253   -0.6205 H         1 UNK         0.2987 
    111 H111       31.6431   33.0995    1.5227 H         1 UNK         0.0949 
    112 H112       33.4733   31.1437    0.0320 H         1 UNK         0.0806 
    113 H113       33.3253   32.8625   -0.3337 H         1 UNK         0.0806 
    114 H114       33.9671   32.3458    1.2149 H         1 UNK         0.0806 
    115 H115       29.6915   30.7498    1.6790 H         1 UNK         0.3010 
    116 H116       30.7140   28.5925    3.0814 H         1 UNK         0.0829 
    117 H117       28.4342   28.5902    2.2436 H         1 UNK         0.0813 
    118 H118       28.3591   28.3458    3.9772 H         1 UNK         0.0813 
    119 H119       27.9695   29.9222    3.3008 H         1 UNK         0.0813 
    120 H120       30.1497   31.8096    4.3569 H         1 UNK         0.3038 
    121 H121       30.2637   31.2281    7.1486 H         1 UNK         0.0769 
    122 H122       30.9727   33.7866    5.6091 H         1 UNK         0.0811 
    123 H123       30.7171   33.6796    7.3450 H         1 UNK         0.0811 
    124 H124       29.3819   33.3695    6.2495 H         1 UNK         0.0811 
    125 H125       32.8268   31.2826    4.7261 H         1 UNK         0.3204 
    126 H126       35.0045   32.0008    6.4300 H         1 UNK         0.0748 
    127 H127       35.0729   32.1108    3.9214 H         1 UNK         0.0771 
    128 H128       36.4028   31.1659    4.5732 H         1 UNK         0.0771 
    129 H129       35.0276   30.3491    3.8473 H         1 UNK         0.0771 
    130 H130       33.2271   29.0190    6.1145 H         1 UNK         0.2980 
    131 H131       35.2734   27.3482    7.3713 H         1 UNK         0.0545 
    132 H132       33.1654   29.0762   10.3165 H         1 UNK         0.3459 
    133 H133       33.2271   29.7725    8.7167 H         1 UNK         0.3459 
    134 H134       33.5066   25.5853    7.3584 H         1 UNK         0.0616 
    135 H135       32.3509   26.7299    6.7333 H         1 UNK         0.0616 
    136 H136       32.7611   27.8529    4.0854 H         1 UNK         0.0634 
    137 H137       31.6893   26.5263    4.4943 H         1 UNK         0.0634 
@<TRIPOS>BOND
     1    1    2 1    
     2    1   72 1    
     3    1   73 1    
     4    1   74 1    
     5    2    3 2    
     6    2    4 am   BACKBONE|DICT|INTERRES
     7    4    5 1    
     8    4   75 1    
     9    5    6 1    
    10    5   35 1    
    11    5   76 1    
    12    6    7 1    
    13    6   77 1    
    14    6   78 1    
    15    7    8 1    
    16    8    9 1    
    17    8   79 1    
    18    8   80 1    
    19    9   10 ar   
    20    9   14 ar   
    21   10   11 ar   
    22   10   81 1    
    23   11   12 ar   
    24   11   71 1    
    25   12   13 ar   
    26   12   82 1    
    27   13   14 ar   
    28   13   15 1    
    29   14   83 1    
    30   15   16 1    
    31   15   84 1    
    32   15   85 1    
    33   16   17 1    
    34   17   18 1    
    35   17   86 1    
    36   17   87 1    
    37   18   19 1    
    38   18   37 1    
    39   18   88 1    
    40   19   20 am   BACKBONE|DICT|INTERRES
    41   19   89 1    
    42   20   21 2    
    43   20   22 1    
    44   22   23 1    
    45   22   24 1    
    46   22   90 1    
    47   23   91 1    
    48   23   92 1    
    49   23   93 1    
    50   24   25 am   BACKBONE|DICT|INTERRES
    51   24   94 1    
    52   25   26 2    
    53   25   27 1    
    54   27   28 1    
    55   27   29 1    
    56   27   95 1    
    57   28   96 1    
    58   28   97 1    
    59   28   98 1    
    60   29   30 am   BACKBONE|DICT|INTERRES
    61   29   99 1    
    62   30   31 2    
    63   30   32 1    
    64   32   33 1    
    65   32   34 1    
    66   32  100 1    
    67   33  101 1    
    68   33  102 1    
    69   33  103 1    
    70   34   35 am   BACKBONE|DICT|INTERRES
    71   34  104 1    
    72   35   36 2    
    73   37   38 2    
    74   37   39 am   BACKBONE|DICT|INTERRES
    75   39   40 1    
    76   39  105 1    
    77   40   41 1    
    78   40   42 1    
    79   40  106 1    
    80   41  107 1    
    81   41  108 1    
    82   41  109 1    
    83   42   43 2    
    84   42   44 am   BACKBONE|DICT|INTERRES
    85   44   45 1    
    86   44  110 1    
    87   45   46 1    
    88   45   47 1    
    89   45  111 1    
    90   46  112 1    
    91   46  113 1    
    92   46  114 1    
    93   47   48 2    
    94   47   49 am   BACKBONE|DICT|INTERRES
    95   49   50 1    
    96   49  115 1    
    97   50   51 1    
    98   50   52 1    
    99   50  116 1    
   100   51  117 1    
   101   51  118 1    
   102   51  119 1    
   103   52   53 2    
   104   52   54 am   BACKBONE|DICT|INTERRES
   105   54   55 1    
   106   54  120 1    
   107   55   56 1    
   108   55   57 1    
   109   55  121 1    
   110   56  122 1    
   111   56  123 1    
   112   56  124 1    
   113   57   58 2    
   114   57   59 am   BACKBONE|DICT|INTERRES
   115   59   60 1    
   116   59  125 1    
   117   60   61 1    
   118   60   62 1    
   119   60  126 1    
   120   61  127 1    
   121   61  128 1    
   122   61  129 1    
   123   62   63 2    
   124   62   64 am   BACKBONE|DICT|INTERRES
   125   64   65 1    
   126   64  130 1    
   127   65   66 1    
   128   65   69 1    
   129   65  131 1    
   130   66   67 am   BACKBONE|DICT|INTERRES
   131   66   68 2    
   132   67  132 1    
   133   67  133 1    
   134   69   70 1    
   135   69  134 1    
   136   69  135 1    
   137   70   71 1    
   138   71  136 1    
   139   71  137 1    
@<TRIPOS>SUBSTRUCTURE
     1 UNK         1 GROUP             0       ****    0 ROOT    
