@<TRIPOS>MOLECULE
3R136
137   139    1
SMALL
USER_CHARGES


@<TRIPOS>ATOM
      1 CA         27.6125   20.3932   -4.3343 C.3       0 UNK        -0.1979 
      2 C          28.7411   20.8447   -3.4185 C.2       0 UNK         0.4864 
      3 O          29.9090   20.7583   -3.8007 O.2       0 UNK        -0.5359 
      4 N          28.4013   21.3267   -2.2173 N.am      1 UNK        -0.4318 
      5 CA         29.3520   21.8371   -1.2258 C.3       1 UNK         0.0824 
      6 C6         30.1976   20.7065   -0.5468 C.3       12 UNK        -0.0944 
      7 S7         30.6188   20.8602    1.2279 S.3       12 UNK        -0.2672 
      8 C8         31.8054   22.2496    1.2028 C.3       12 UNK         0.0333 
      9 C9         31.6981   23.1492    2.4324 C.ar      12 UNK        -0.0807 
     10 C10        32.8548   23.6662    3.0215 C.ar      12 UNK        -0.0894 
     11 C11        32.7695   24.5170    4.1273 C.ar      12 UNK        -0.0804 
     12 C12        31.5155   24.8548    4.6462 C.ar      12 UNK        -0.0824 
     13 C13        30.3428   24.3544    4.0638 C.ar      12 UNK        -0.0762 
     14 C14        30.4515   23.5042    2.9608 C.ar      12 UNK        -0.0782 
     15 C15        28.9429   24.6703    4.5961 C.3       12 UNK         0.0230 
     16 S16        28.8254   26.1749    5.6225 S.3       12 UNK        -0.2608 
     17 C17        27.3974   27.0432    4.8918 C.3       12 UNK        -0.0989 
     18 CA         27.8629   28.1292    3.8946 C.3       5 UNK         0.0716 
     19 N          28.3864   27.5643    2.6471 N.am      5 UNK        -0.4135 
     20 C          29.2490   28.2085    1.8486 C.2       4 UNK         0.5031 
     21 O          29.7125   29.3180    2.1093 O.2       4 UNK        -0.5229 
     22 CA         29.6287   27.5345    0.5174 C.3       4 UNK         0.0329 
     23 CB         30.8547   26.6283    0.7048 C.3       4 UNK        -0.2001 
     24 N          28.5309   26.7654   -0.0768 N.am      4 UNK        -0.4303 
     25 C          27.3650   27.2994   -0.4745 C.2       3 UNK         0.5044 
     26 O          27.1328   28.5060   -0.4416 O.2       3 UNK        -0.5152 
     27 CA         26.2415   26.3497   -0.9346 C.3       3 UNK         0.0319 
     28 CB         26.1983   26.2812   -2.4688 C.3       3 UNK        -0.2001 
     29 N          26.3280   24.9908   -0.3955 N.am      3 UNK        -0.4354 
     30 C          26.3880   24.6577    0.9021 C.2       2 UNK         0.4964 
     31 O          26.3160   25.4724    1.8246 O.2       2 UNK        -0.5047 
     32 CA         26.6451   23.1722    1.2224 C.3       2 UNK         0.0288 
     33 CB         25.3119   22.4400    1.4411 C.3       2 UNK        -0.2113 
     34 N          27.4493   22.4311    0.2330 N.am      2 UNK        -0.4145 
     35 C          28.6323   22.8165   -0.2799 C.2       1 UNK         0.5006 
     36 O          29.1465   23.9133   -0.0573 O.2       1 UNK        -0.5103 
     37 C          26.7555   29.1644    3.6213 C.2       5 UNK         0.5055 
     38 O          26.6635   30.1420    4.3640 O.2       5 UNK        -0.5220 
     39 N          25.9673   28.9743    2.5514 N.am      6 UNK        -0.4450 
     40 CA         24.9729   29.9477    2.0837 C.3       6 UNK         0.0367 
     41 CB         24.0435   29.2946    1.0480 C.3       6 UNK        -0.1929 
     42 C          25.6298   31.2179    1.5122 C.2       6 UNK         0.5070 
     43 O          25.1526   32.3217    1.7745 O.2       6 UNK        -0.5237 
     44 N          26.7359   31.0389    0.7770 N.am      7 UNK        -0.4739 
     45 CA         27.5931   32.1078    0.2552 C.3       7 UNK         0.0276 
     46 CB         28.4904   31.5236   -0.8485 C.3       7 UNK        -0.1927 
     47 C          28.4567   32.7933    1.3325 C.2       7 UNK         0.5013 
     48 O          29.0074   33.8603    1.0586 O.2       7 UNK        -0.5193 
     49 N          28.5638   32.1708    2.5161 N.am      8 UNK        -0.4253 
     50 CA         29.3614   32.5698    3.6796 C.3       8 UNK         0.0242 
     51 CB         28.8405   33.8926    4.2818 C.3       8 UNK        -0.2000 
     52 C          30.8707   32.5889    3.3727 C.2       8 UNK         0.4948 
     53 O          31.5360   33.6055    3.5865 O.2       8 UNK        -0.5275 
     54 N          31.3777   31.4575    2.8628 N.am      9 UNK        -0.4246 
     55 CA         32.7937   31.2110    2.5807 C.3       9 UNK         0.0261 
     56 CB         32.9359   29.8377    1.9035 C.3       9 UNK        -0.1959 
     57 C          33.6718   31.2697    3.8436 C.2       9 UNK         0.5033 
     58 O          33.2022   30.9634    4.9436 O.2       9 UNK        -0.5390 
     59 N          34.9505   31.6192    3.6462 N.am      10 UNK        -0.4215 
     60 CA         35.9586   31.8237    4.6946 C.3       10 UNK         0.0240 
     61 CB         37.2642   32.3137    4.0463 C.3       10 UNK        -0.1982 
     62 C          36.2339   30.6050    5.5960 C.2       10 UNK         0.4970 
     63 O          36.7107   30.7924    6.7163 O.2       10 UNK        -0.4916 
     64 N          35.9296   29.3943    5.1106 N.am      11 UNK        -0.4279 
     65 CA         35.9823   28.1522    5.8930 C.3       11 UNK         0.1003 
     66 C          34.8577   28.0050    6.9630 C.2       11 UNK         0.5709 
     67 N          33.8139   28.8277    6.9578 N.am      11 UNK        -0.7358 
     68 O          34.9445   27.1317    7.8230 O.2       11 UNK        -0.4999 
     69 C69        36.1079   26.9073    4.9758 C.3       12 UNK        -0.0954 
     70 S70        34.6293   26.5636    3.9574 S.3       12 UNK        -0.2268 
     71 C71        34.0354   25.0511    4.7765 C.3       12 UNK         0.0203 
     72 H72        27.6253   20.9711   -5.2580 H         1 UNK         0.0888 
     73 H73        27.7352   19.3408   -4.5891 H         1 UNK         0.0888 
     74 H74        26.6341   20.5171   -3.8704 H         1 UNK         0.0888 
     75 H75        27.4230   21.4125   -1.9816 H         1 UNK         0.3017 
     76 H76        30.0598   22.4665   -1.7710 H         1 UNK         0.0873 
     77 H77        29.6664   19.7573   -0.6349 H         1 UNK         0.0745 
     78 H78        31.1232   20.5605   -1.1062 H         1 UNK         0.0745 
     79 H79        32.8117   21.8376    1.1127 H         1 UNK         0.0705 
     80 H80        31.6465   22.8671    0.3186 H         1 UNK         0.0705 
     81 H81        33.8257   23.4108    2.6190 H         1 UNK         0.1334 
     82 H82        31.4651   25.5048    5.5082 H         1 UNK         0.1417 
     83 H83        29.5530   23.1160    2.5056 H         1 UNK         0.1562 
     84 H84        28.5932   23.8221    5.1860 H         1 UNK         0.0748 
     85 H85        28.2584   24.7590    3.7525 H         1 UNK         0.0748 
     86 H86        26.8505   27.4951    5.7222 H         1 UNK         0.0940 
     87 H87        26.7045   26.3392    4.4274 H         1 UNK         0.0940 
     88 H88        28.6725   28.6837    4.3761 H         1 UNK         0.0703 
     89 H89        28.0004   26.6767    2.3493 H         1 UNK         0.3081 
     90 H90        29.8960   28.3257   -0.1859 H         1 UNK         0.0719 
     91 H91        31.7008   27.1858    1.1073 H         1 UNK         0.0809 
     92 H92        31.1740   26.1894   -0.2404 H         1 UNK         0.0809 
     93 H93        30.6471   25.8128    1.3964 H         1 UNK         0.0809 
     94 H94        28.6584   25.7571   -0.1279 H         1 UNK         0.2990 
     95 H95        25.2985   26.7732   -0.5846 H         1 UNK         0.0690 
     96 H96        25.3447   25.6996   -2.8177 H         1 UNK         0.0788 
     97 H97        27.1038   25.8311   -2.8780 H         1 UNK         0.0788 
     98 H98        26.1058   27.2786   -2.9015 H         1 UNK         0.0788 
     99 H99        26.4062   24.2471   -1.0727 H         1 UNK         0.2993 
    100 H100       27.1973   23.1465    2.1627 H         1 UNK         0.0949 
    101 H101       25.4703   21.4240    1.8036 H         1 UNK         0.0767 
    102 H102       24.7006   22.9535    2.1850 H         1 UNK         0.0767 
    103 H103       24.7272   22.3826    0.5220 H         1 UNK         0.0767 
    104 H104       27.1311   21.4941    0.0331 H         1 UNK         0.3013 
    105 H105       26.1046   28.1488    1.9854 H         1 UNK         0.3121 
    106 H106       24.3649   30.2449    2.9412 H         1 UNK         0.0774 
    107 H107       24.5753   29.0217    0.1368 H         1 UNK         0.0815 
    108 H108       23.2453   29.9802    0.7607 H         1 UNK         0.0815 
    109 H109       23.5709   28.3964    1.4457 H         1 UNK         0.0815 
    110 H110       26.9992   30.0880    0.5253 H         1 UNK         0.2987 
    111 H111       26.9540   32.8749   -0.1875 H         1 UNK         0.0949 
    112 H112       29.1578   30.7551   -0.4563 H         1 UNK         0.0806 
    113 H113       27.8982   31.0764   -1.6471 H         1 UNK         0.0806 
    114 H114       29.1124   32.2976   -1.2999 H         1 UNK         0.0806 
    115 H115       28.0855   31.2850    2.6048 H         1 UNK         0.3010 
    116 H116       29.2136   31.7907    4.4293 H         1 UNK         0.0829 
    117 H117       28.9826   34.7341    3.6032 H         1 UNK         0.0813 
    118 H118       27.7785   33.8276    4.5187 H         1 UNK         0.0813 
    119 H119       29.3656   34.1310    5.2075 H         1 UNK         0.0813 
    120 H120       30.7449   30.6780    2.6852 H         1 UNK         0.3038 
    121 H121       33.1279   31.9844    1.8862 H         1 UNK         0.0769 
    122 H122       33.9721   29.6332    1.6314 H         1 UNK         0.0811 
    123 H123       32.6070   29.0324    2.5625 H         1 UNK         0.0811 
    124 H124       32.3451   29.7833    0.9888 H         1 UNK         0.0811 
    125 H125       35.2473   31.8251    2.7027 H         1 UNK         0.3204 
    126 H126       35.5843   32.6165    5.3456 H         1 UNK         0.0748 
    127 H127       38.0280   32.5073    4.8011 H         1 UNK         0.0771 
    128 H128       37.6717   31.5768    3.3528 H         1 UNK         0.0771 
    129 H129       37.1126   33.2444    3.4991 H         1 UNK         0.0771 
    130 H130       35.5239   29.3227    4.1902 H         1 UNK         0.2980 
    131 H131       36.9094   28.1921    6.4681 H         1 UNK         0.0545 
    132 H132       33.1015   28.7198    7.6612 H         1 UNK         0.3459 
    133 H133       33.7143   29.5463    6.2475 H         1 UNK         0.3459 
    134 H134       36.3540   26.0289    5.5750 H         1 UNK         0.0616 
    135 H135       36.9539   27.0365    4.2991 H         1 UNK         0.0616 
    136 H136       34.8167   24.2903    4.7395 H         1 UNK         0.0634 
    137 H137       33.8570   25.2582    5.8328 H         1 UNK         0.0634 
@<TRIPOS>BOND
     1    1    2 1    
     2    1   72 1    
     3    1   73 1    
     4    1   74 1    
     5    2    3 2    
     6    2    4 am   BACKBONE|DICT|INTERRES
     7    4    5 1    
     8    4   75 1    
     9    5    6 1    
    10    5   35 1    
    11    5   76 1    
    12    6    7 1    
    13    6   77 1    
    14    6   78 1    
    15    7    8 1    
    16    8    9 1    
    17    8   79 1    
    18    8   80 1    
    19    9   10 ar   
    20    9   14 ar   
    21   10   11 ar   
    22   10   81 1    
    23   11   12 ar   
    24   11   71 1    
    25   12   13 ar   
    26   12   82 1    
    27   13   14 ar   
    28   13   15 1    
    29   14   83 1    
    30   15   16 1    
    31   15   84 1    
    32   15   85 1    
    33   16   17 1    
    34   17   18 1    
    35   17   86 1    
    36   17   87 1    
    37   18   19 1    
    38   18   37 1    
    39   18   88 1    
    40   19   20 am   BACKBONE|DICT|INTERRES
    41   19   89 1    
    42   20   21 2    
    43   20   22 1    
    44   22   23 1    
    45   22   24 1    
    46   22   90 1    
    47   23   91 1    
    48   23   92 1    
    49   23   93 1    
    50   24   25 am   BACKBONE|DICT|INTERRES
    51   24   94 1    
    52   25   26 2    
    53   25   27 1    
    54   27   28 1    
    55   27   29 1    
    56   27   95 1    
    57   28   96 1    
    58   28   97 1    
    59   28   98 1    
    60   29   30 am   BACKBONE|DICT|INTERRES
    61   29   99 1    
    62   30   31 2    
    63   30   32 1    
    64   32   33 1    
    65   32   34 1    
    66   32  100 1    
    67   33  101 1    
    68   33  102 1    
    69   33  103 1    
    70   34   35 am   BACKBONE|DICT|INTERRES
    71   34  104 1    
    72   35   36 2    
    73   37   38 2    
    74   37   39 am   BACKBONE|DICT|INTERRES
    75   39   40 1    
    76   39  105 1    
    77   40   41 1    
    78   40   42 1    
    79   40  106 1    
    80   41  107 1    
    81   41  108 1    
    82   41  109 1    
    83   42   43 2    
    84   42   44 am   BACKBONE|DICT|INTERRES
    85   44   45 1    
    86   44  110 1    
    87   45   46 1    
    88   45   47 1    
    89   45  111 1    
    90   46  112 1    
    91   46  113 1    
    92   46  114 1    
    93   47   48 2    
    94   47   49 am   BACKBONE|DICT|INTERRES
    95   49   50 1    
    96   49  115 1    
    97   50   51 1    
    98   50   52 1    
    99   50  116 1    
   100   51  117 1    
   101   51  118 1    
   102   51  119 1    
   103   52   53 2    
   104   52   54 am   BACKBONE|DICT|INTERRES
   105   54   55 1    
   106   54  120 1    
   107   55   56 1    
   108   55   57 1    
   109   55  121 1    
   110   56  122 1    
   111   56  123 1    
   112   56  124 1    
   113   57   58 2    
   114   57   59 am   BACKBONE|DICT|INTERRES
   115   59   60 1    
   116   59  125 1    
   117   60   61 1    
   118   60   62 1    
   119   60  126 1    
   120   61  127 1    
   121   61  128 1    
   122   61  129 1    
   123   62   63 2    
   124   62   64 am   BACKBONE|DICT|INTERRES
   125   64   65 1    
   126   64  130 1    
   127   65   66 1    
   128   65   69 1    
   129   65  131 1    
   130   66   67 am   BACKBONE|DICT|INTERRES
   131   66   68 2    
   132   67  132 1    
   133   67  133 1    
   134   69   70 1    
   135   69  134 1    
   136   69  135 1    
   137   70   71 1    
   138   71  136 1    
   139   71  137 1    
@<TRIPOS>SUBSTRUCTURE
     1 UNK         1 GROUP             0       ****    0 ROOT    
