@<TRIPOS>MOLECULE
3R136
137   139    1
SMALL
USER_CHARGES


@<TRIPOS>ATOM
      1 CA         29.4723   19.3876   -2.8747 C.3       0 UNK        -0.1979 
      2 C          29.2912   20.7801   -2.2887 C.2       0 UNK         0.4864 
      3 O          28.4172   21.5240   -2.7369 O.2       0 UNK        -0.5359 
      4 N          30.1173   21.1411   -1.2987 N.am      1 UNK        -0.4318 
      5 CA         30.0579   22.4059   -0.5612 C.3       1 UNK         0.0824 
      6 C6         31.3442   22.6919    0.2706 C.3       12 UNK        -0.0944 
      7 S7         32.2787   21.2306    0.8667 S.3       12 UNK        -0.2672 
      8 C8         31.5291   20.8522    2.4848 C.3       12 UNK         0.0333 
      9 C9         31.5628   22.0293    3.4486 C.ar      12 UNK        -0.0807 
     10 C10        32.7814   22.5418    3.9056 C.ar      12 UNK        -0.0894 
     11 C11        32.8085   23.6398    4.7719 C.ar      12 UNK        -0.0804 
     12 C12        31.6053   24.2045    5.2048 C.ar      12 UNK        -0.0824 
     13 C13        30.3826   23.6907    4.7646 C.ar      12 UNK        -0.0762 
     14 C14        30.3669   22.6057    3.8851 C.ar      12 UNK        -0.0782 
     15 C15        29.0746   24.3105    5.2271 C.3       12 UNK         0.0230 
     16 S16        28.4550   25.5129    4.0149 S.3       12 UNK        -0.2608 
     17 C17        29.6102   26.8975    4.2725 C.3       12 UNK        -0.0989 
     18 CA         29.2417   28.1954    3.5185 C.3       5 UNK         0.0716 
     19 N          29.2693   28.0533    2.0603 N.am      5 UNK        -0.4135 
     20 C          29.4831   29.0864    1.2332 C.2       4 UNK         0.5031 
     21 O          29.6905   30.2347    1.6229 O.2       4 UNK        -0.5229 
     22 CA         29.4410   28.8114   -0.2771 C.3       4 UNK         0.0329 
     23 CB         30.7741   28.2222   -0.7624 C.3       4 UNK        -0.2001 
     24 N          28.3349   27.9388   -0.6726 N.am      4 UNK        -0.4303 
     25 C          27.0397   28.2680   -0.5658 C.2       3 UNK         0.5044 
     26 O          26.6387   29.3362   -0.1058 O.2       3 UNK        -0.5152 
     27 CA         26.0197   27.2097   -1.0182 C.3       3 UNK         0.0319 
     28 CB         25.8187   27.2664   -2.5409 C.3       3 UNK        -0.2001 
     29 N          26.3749   25.8436   -0.6165 N.am      3 UNK        -0.4354 
     30 C          26.4925   25.4397    0.6579 C.2       2 UNK         0.4964 
     31 O          26.3680   26.1927    1.6225 O.2       2 UNK        -0.5047 
     32 CA         26.8362   23.9629    0.8821 C.3       2 UNK         0.0288 
     33 CB         25.6585   23.0551    0.4699 C.3       2 UNK        -0.2113 
     34 N          28.0608   23.6269    0.1539 N.am      2 UNK        -0.4145 
     35 C          28.7739   22.5014    0.2908 C.2       1 UNK         0.5006 
     36 O          28.4683   21.5759    1.0463 O.2       1 UNK        -0.5103 
     37 C          27.9387   28.8527    4.0142 C.2       5 UNK         0.5055 
     38 O          27.9960   29.6327    4.9650 O.2       5 UNK        -0.5220 
     39 N          26.8083   28.6051    3.3317 N.am      6 UNK        -0.4450 
     40 CA         25.5390   29.3070    3.5585 C.3       6 UNK         0.0367 
     41 CB         24.4244   28.6523    2.7279 C.3       6 UNK        -0.1929 
     42 C          25.6310   30.8154    3.2574 C.2       6 UNK         0.5070 
     43 O          25.0500   31.6172    3.9884 O.2       6 UNK        -0.5237 
     44 N          26.3965   31.1761    2.2181 N.am      7 UNK        -0.4739 
     45 CA         26.7398   32.5558    1.8597 C.3       7 UNK         0.0276 
     46 CB         27.1592   32.5877    0.3798 C.3       7 UNK        -0.1927 
     47 C          27.8458   33.1724    2.7417 C.2       7 UNK         0.5013 
     48 O          28.1224   34.3634    2.5937 O.2       7 UNK        -0.5193 
     49 N          28.4695   32.3640    3.6140 N.am      8 UNK        -0.4253 
     50 CA         29.6100   32.6830    4.4838 C.3       8 UNK         0.0242 
     51 CB         29.2221   33.7363    5.5434 C.3       8 UNK        -0.2000 
     52 C          30.8919   33.0519    3.7074 C.2       8 UNK         0.4948 
     53 O          31.7117   33.8248    4.2065 O.2       8 UNK        -0.5275 
     54 N          31.0518   32.4800    2.5074 N.am      9 UNK        -0.4246 
     55 CA         32.2039   32.6610    1.6234 C.3       9 UNK         0.0261 
     56 CB         31.7003   32.6975    0.1698 C.3       9 UNK        -0.1959 
     57 C          33.2585   31.5526    1.7964 C.2       9 UNK         0.5033 
     58 O          34.3519   31.6812    1.2431 O.2       9 UNK        -0.5390 
     59 N          32.9263   30.4888    2.5379 N.am      10 UNK        -0.4215 
     60 CA         33.7803   29.3372    2.8162 C.3       10 UNK         0.0240 
     61 CB         33.4887   28.2420    1.7727 C.3       10 UNK        -0.1982 
     62 C          33.4890   28.8290    4.2395 C.2       10 UNK         0.4970 
     63 O          32.4082   29.1158    4.7559 O.2       10 UNK        -0.4916 
     64 N          34.3873   28.0690    4.8813 N.am      11 UNK        -0.4279 
     65 CA         35.7550   27.7126    4.4517 C.3       11 UNK         0.1003 
     66 C          36.8481   28.6667    5.0163 C.2       11 UNK         0.5709 
     67 N          36.5073   29.6787    5.8060 N.am      11 UNK        -0.7358 
     68 O          38.0270   28.5009    4.7131 O.2       11 UNK        -0.4999 
     69 C69        36.0808   26.2256    4.7557 C.3       12 UNK        -0.0954 
     70 S70        34.9611   25.0969    3.8612 S.3       12 UNK        -0.2268 
     71 C71        34.1339   24.2290    5.2285 C.3       12 UNK         0.0203 
     72 H72        28.5586   18.8070   -2.7505 H         1 UNK         0.0888 
     73 H73        29.6926   19.4542   -3.9398 H         1 UNK         0.0888 
     74 H74        30.2864   18.8459   -2.3932 H         1 UNK         0.0888 
     75 H75        30.8075   20.4877   -0.9545 H         1 UNK         0.3017 
     76 H76        29.9950   23.1917   -1.3177 H         1 UNK         0.0873 
     77 H77        31.1491   23.3745    1.1000 H         1 UNK         0.0745 
     78 H78        32.0413   23.2380   -0.3668 H         1 UNK         0.0745 
     79 H79        32.0692   20.0162    2.9312 H         1 UNK         0.0705 
     80 H80        30.5085   20.5011    2.3296 H         1 UNK         0.0705 
     81 H81        33.7097   22.1037    3.5644 H         1 UNK         0.1334 
     82 H82        31.6190   25.0533    5.8750 H         1 UNK         0.1417 
     83 H83        29.4203   22.2168    3.5338 H         1 UNK         0.1562 
     84 H84        29.1931   24.7903    6.1999 H         1 UNK         0.0748 
     85 H85        28.3251   23.5294    5.3626 H         1 UNK         0.0748 
     86 H86        30.6060   26.5777    3.9614 H         1 UNK         0.0940 
     87 H87        29.6866   27.1005    5.3425 H         1 UNK         0.0940 
     88 H88        30.0284   28.9072    3.7743 H         1 UNK         0.0703 
     89 H89        29.0649   27.1385    1.6870 H         1 UNK         0.3081 
     90 H90        29.2972   29.7715   -0.7778 H         1 UNK         0.0719 
     91 H91        30.7773   28.0854   -1.8439 H         1 UNK         0.0809 
     92 H92        31.6008   28.8926   -0.5236 H         1 UNK         0.0809 
     93 H93        30.9887   27.2577   -0.3005 H         1 UNK         0.0809 
     94 H94        28.5729   27.0477   -1.0805 H         1 UNK         0.2990 
     95 H95        25.0669   27.4536   -0.5435 H         1 UNK         0.0690 
     96 H96        25.5389   28.2718   -2.8596 H         1 UNK         0.0788 
     97 H97        25.0217   26.5949   -2.8611 H         1 UNK         0.0788 
     98 H98        26.7257   26.9938   -3.0818 H         1 UNK         0.0788 
     99 H99        26.4511   25.1589   -1.3552 H         1 UNK         0.2993 
    100 H100       27.0235   23.8260    1.9492 H         1 UNK         0.0949 
    101 H101       25.4948   23.0640   -0.6082 H         1 UNK         0.0767 
    102 H102       25.8266   22.0210    0.7704 H         1 UNK         0.0767 
    103 H103       24.7314   23.3774    0.9462 H         1 UNK         0.0767 
    104 H104       28.4039   24.3396   -0.4734 H         1 UNK         0.3013 
    105 H105       26.8136   27.8939    2.6059 H         1 UNK         0.3121 
    106 H106       25.2846   29.1966    4.6148 H         1 UNK         0.0774 
    107 H107       24.6282   28.7136    1.6588 H         1 UNK         0.0815 
    108 H108       23.4661   29.1416    2.9064 H         1 UNK         0.0815 
    109 H109       24.3046   27.5998    2.9853 H         1 UNK         0.0815 
    110 H110       26.7684   30.4488    1.6148 H         1 UNK         0.2987 
    111 H111       25.8497   33.1777    1.9771 H         1 UNK         0.0949 
    112 H112       28.0530   31.9884    0.2022 H         1 UNK         0.0806 
    113 H113       26.3677   32.2053   -0.2650 H         1 UNK         0.0806 
    114 H114       27.3785   33.6052    0.0538 H         1 UNK         0.0806 
    115 H115       28.1508   31.4044    3.6634 H         1 UNK         0.3010 
    116 H116       29.8446   31.7593    5.0151 H         1 UNK         0.0829 
    117 H117       28.3222   33.4418    6.0833 H         1 UNK         0.0813 
    118 H118       30.0154   33.8591    6.2818 H         1 UNK         0.0813 
    119 H119       29.0416   34.7142    5.0964 H         1 UNK         0.0813 
    120 H120       30.3553   31.8057    2.1898 H         1 UNK         0.3038 
    121 H121       32.6896   33.6146    1.8408 H         1 UNK         0.0769 
    122 H122       31.2322   31.7558   -0.1196 H         1 UNK         0.0811 
    123 H123       32.5213   32.8806   -0.5246 H         1 UNK         0.0811 
    124 H124       30.9692   33.4930    0.0242 H         1 UNK         0.0811 
    125 H125       32.0327   30.4785    3.0122 H         1 UNK         0.3204 
    126 H126       34.8221   29.6548    2.7548 H         1 UNK         0.0748 
    127 H127       34.0964   27.3527    1.9374 H         1 UNK         0.0771 
    128 H128       32.4453   27.9268    1.8071 H         1 UNK         0.0771 
    129 H129       33.7020   28.5927    0.7630 H         1 UNK         0.0771 
    130 H130       34.1455   27.7463    5.8056 H         1 UNK         0.2980 
    131 H131       35.8415   27.8144    3.3715 H         1 UNK         0.0545 
    132 H132       37.2265   30.2919    6.1565 H         1 UNK         0.3459 
    133 H133       35.5456   29.8315    6.0640 H         1 UNK         0.3459 
    134 H134       37.0972   25.9807    4.4420 H         1 UNK         0.0616 
    135 H135       36.0400   26.0321    5.8288 H         1 UNK         0.0616 
    136 H136       33.9723   24.9203    6.0569 H         1 UNK         0.0634 
    137 H137       34.7851   23.4381    5.6030 H         1 UNK         0.0634 
@<TRIPOS>BOND
     1    1    2 1    
     2    1   72 1    
     3    1   73 1    
     4    1   74 1    
     5    2    3 2    
     6    2    4 am   BACKBONE|DICT|INTERRES
     7    4    5 1    
     8    4   75 1    
     9    5    6 1    
    10    5   35 1    
    11    5   76 1    
    12    6    7 1    
    13    6   77 1    
    14    6   78 1    
    15    7    8 1    
    16    8    9 1    
    17    8   79 1    
    18    8   80 1    
    19    9   10 ar   
    20    9   14 ar   
    21   10   11 ar   
    22   10   81 1    
    23   11   12 ar   
    24   11   71 1    
    25   12   13 ar   
    26   12   82 1    
    27   13   14 ar   
    28   13   15 1    
    29   14   83 1    
    30   15   16 1    
    31   15   84 1    
    32   15   85 1    
    33   16   17 1    
    34   17   18 1    
    35   17   86 1    
    36   17   87 1    
    37   18   19 1    
    38   18   37 1    
    39   18   88 1    
    40   19   20 am   BACKBONE|DICT|INTERRES
    41   19   89 1    
    42   20   21 2    
    43   20   22 1    
    44   22   23 1    
    45   22   24 1    
    46   22   90 1    
    47   23   91 1    
    48   23   92 1    
    49   23   93 1    
    50   24   25 am   BACKBONE|DICT|INTERRES
    51   24   94 1    
    52   25   26 2    
    53   25   27 1    
    54   27   28 1    
    55   27   29 1    
    56   27   95 1    
    57   28   96 1    
    58   28   97 1    
    59   28   98 1    
    60   29   30 am   BACKBONE|DICT|INTERRES
    61   29   99 1    
    62   30   31 2    
    63   30   32 1    
    64   32   33 1    
    65   32   34 1    
    66   32  100 1    
    67   33  101 1    
    68   33  102 1    
    69   33  103 1    
    70   34   35 am   BACKBONE|DICT|INTERRES
    71   34  104 1    
    72   35   36 2    
    73   37   38 2    
    74   37   39 am   BACKBONE|DICT|INTERRES
    75   39   40 1    
    76   39  105 1    
    77   40   41 1    
    78   40   42 1    
    79   40  106 1    
    80   41  107 1    
    81   41  108 1    
    82   41  109 1    
    83   42   43 2    
    84   42   44 am   BACKBONE|DICT|INTERRES
    85   44   45 1    
    86   44  110 1    
    87   45   46 1    
    88   45   47 1    
    89   45  111 1    
    90   46  112 1    
    91   46  113 1    
    92   46  114 1    
    93   47   48 2    
    94   47   49 am   BACKBONE|DICT|INTERRES
    95   49   50 1    
    96   49  115 1    
    97   50   51 1    
    98   50   52 1    
    99   50  116 1    
   100   51  117 1    
   101   51  118 1    
   102   51  119 1    
   103   52   53 2    
   104   52   54 am   BACKBONE|DICT|INTERRES
   105   54   55 1    
   106   54  120 1    
   107   55   56 1    
   108   55   57 1    
   109   55  121 1    
   110   56  122 1    
   111   56  123 1    
   112   56  124 1    
   113   57   58 2    
   114   57   59 am   BACKBONE|DICT|INTERRES
   115   59   60 1    
   116   59  125 1    
   117   60   61 1    
   118   60   62 1    
   119   60  126 1    
   120   61  127 1    
   121   61  128 1    
   122   61  129 1    
   123   62   63 2    
   124   62   64 am   BACKBONE|DICT|INTERRES
   125   64   65 1    
   126   64  130 1    
   127   65   66 1    
   128   65   69 1    
   129   65  131 1    
   130   66   67 am   BACKBONE|DICT|INTERRES
   131   66   68 2    
   132   67  132 1    
   133   67  133 1    
   134   69   70 1    
   135   69  134 1    
   136   69  135 1    
   137   70   71 1    
   138   71  136 1    
   139   71  137 1    
@<TRIPOS>SUBSTRUCTURE
     1 UNK         1 GROUP             0       ****    0 ROOT    
