@<TRIPOS>MOLECULE
3R136
137   139    1
SMALL
USER_CHARGES


@<TRIPOS>ATOM
      1 CA         27.9355   18.1335   -1.5706 C.3       0 UNK        -0.1979 
      2 C          28.0743   19.4862   -0.8885 C.2       0 UNK         0.4864 
      3 O          27.8048   19.5934    0.3093 O.2       0 UNK        -0.5359 
      4 N          28.4819   20.5156   -1.6459 N.am      1 UNK        -0.4318 
      5 CA         28.7136   21.9112   -1.2370 C.3       1 UNK         0.0824 
      6 C6         29.7802   22.0768   -0.1250 C.3       12 UNK        -0.0944 
      7 S7         31.4414   21.5581   -0.6763 S.3       12 UNK        -0.2672 
      8 C8         32.1783   20.9570    0.8780 C.3       12 UNK         0.0333 
      9 C9         32.1899   22.0406    1.9464 C.ar      12 UNK        -0.0807 
     10 C10        33.1747   23.0321    1.9460 C.ar      12 UNK        -0.0894 
     11 C11        33.1626   24.0587    2.8974 C.ar      12 UNK        -0.0804 
     12 C12        32.1396   24.0770    3.8597 C.ar      12 UNK        -0.0824 
     13 C13        31.1387   23.1016    3.8559 C.ar      12 UNK        -0.0762 
     14 C14        31.1873   22.0713    2.9162 C.ar      12 UNK        -0.0782 
     15 C15        29.9782   23.1610    4.8369 C.3       12 UNK         0.0230 
     16 S16        28.4222   23.5325    3.9605 S.3       12 UNK        -0.2608 
     17 C17        28.0646   25.2464    4.4696 C.3       12 UNK        -0.0989 
     18 CA         28.7739   26.3231    3.6109 C.3       5 UNK         0.0716 
     19 N          28.4270   26.2572    2.1871 N.am      5 UNK        -0.4135 
     20 C          29.0471   26.9726    1.2331 C.2       4 UNK         0.5031 
     21 O          30.0468   27.6610    1.4489 O.2       4 UNK        -0.5229 
     22 CA         28.4839   26.9452   -0.2011 C.3       4 UNK         0.0329 
     23 CB         29.3991   26.1327   -1.1292 C.3       4 UNK        -0.2001 
     24 N          27.1108   26.4452   -0.2932 N.am      4 UNK        -0.4303 
     25 C          26.0336   27.1209    0.1371 C.2       3 UNK         0.5044 
     26 O          26.0847   28.2722    0.5703 O.2       3 UNK        -0.5152 
     27 CA         24.6670   26.4074    0.0936 C.3       3 UNK         0.0319 
     28 CB         23.8123   26.9542   -1.0616 C.3       3 UNK        -0.2001 
     29 N          24.7359   24.9472   -0.0182 N.am      3 UNK        -0.4354 
     30 C          25.3121   24.1162    0.8620 C.2       2 UNK         0.4964 
     31 O          25.8617   24.4954    1.8958 O.2       2 UNK        -0.5047 
     32 CA         25.3127   22.6152    0.5092 C.3       2 UNK         0.0288 
     33 CB         24.2299   22.2185   -0.5199 C.3       2 UNK        -0.2113 
     34 N          26.6248   22.1393    0.0535 N.am      2 UNK        -0.4145 
     35 C          27.4131   22.6681   -0.8944 C.2       1 UNK         0.5006 
     36 O          27.1491   23.7035   -1.5091 O.2       1 UNK        -0.5103 
     37 C          28.4540   27.7333    4.1493 C.2       5 UNK         0.5055 
     38 O          27.2848   28.1239    4.1521 O.2       5 UNK        -0.5220 
     39 N          29.4972   28.4605    4.5772 N.am      6 UNK        -0.4450 
     40 CA         29.4748   29.8556    5.0380 C.3       6 UNK         0.0367 
     41 CB         28.7443   29.9736    6.3926 C.3       6 UNK        -0.1929 
     42 C          28.9305   30.8271    3.9690 C.2       6 UNK         0.5070 
     43 O          28.0598   31.6479    4.2625 O.2       6 UNK        -0.5237 
     44 N          29.4518   30.7000    2.7391 N.am      7 UNK        -0.4739 
     45 CA         29.1034   31.5216    1.5740 C.3       7 UNK         0.0276 
     46 CB         29.8692   31.0031    0.3457 C.3       7 UNK        -0.1927 
     47 C          29.3651   33.0280    1.7600 C.2       7 UNK         0.5013 
     48 O          28.5990   33.8412    1.2406 O.2       7 UNK        -0.5193 
     49 N          30.4289   33.3682    2.4951 N.am      8 UNK        -0.4253 
     50 CA         30.7957   34.7292    2.8766 C.3       8 UNK         0.0242 
     51 CB         31.6860   35.3569    1.7815 C.3       8 UNK        -0.2000 
     52 C          31.4370   34.6702    4.2716 C.2       8 UNK         0.4948 
     53 O          30.9065   33.9857    5.1486 O.2       8 UNK        -0.5275 
     54 N          32.5809   35.3457    4.4567 N.am      9 UNK        -0.4246 
     55 CA         33.4100   35.2750    5.6684 C.3       9 UNK         0.0261 
     56 CB         34.4822   36.3756    5.6106 C.3       9 UNK        -0.1959 
     57 C          34.0644   33.8940    5.8848 C.2       9 UNK         0.5033 
     58 O          34.4629   33.5810    7.0076 O.2       9 UNK        -0.5390 
     59 N          34.1474   33.0984    4.8141 N.am      10 UNK        -0.4215 
     60 CA         34.5290   31.6934    4.7951 C.3       10 UNK         0.0240 
     61 CB         35.9828   31.5687    4.3057 C.3       10 UNK        -0.1982 
     62 C          33.5590   30.9567    3.8604 C.2       10 UNK         0.4970 
     63 O          32.7876   31.5982    3.1379 O.2       10 UNK        -0.4916 
     64 N          33.6110   29.6228    3.8933 N.am      11 UNK        -0.4279 
     65 CA         32.8723   28.7488    2.9761 C.3       11 UNK         0.1003 
     66 C          33.4586   28.7201    1.5370 C.2       11 UNK         0.5709 
     67 N          32.6573   28.3126    0.5635 N.am      11 UNK        -0.7358 
     68 O          34.6221   29.0408    1.3001 O.2       11 UNK        -0.4999 
     69 C69        32.6744   27.3341    3.5743 C.3       12 UNK        -0.0954 
     70 S70        34.2091   26.4663    4.0473 S.3       12 UNK        -0.2268 
     71 C71        34.2632   25.1230    2.8097 C.3       12 UNK         0.0203 
     72 H72        28.2046   18.1779   -2.6258 H         1 UNK         0.0888 
     73 H73        28.5826   17.4026   -1.0864 H         1 UNK         0.0888 
     74 H74        26.9072   17.7804   -1.4970 H         1 UNK         0.0888 
     75 H75        28.6595   20.3408   -2.6254 H         1 UNK         0.3017 
     76 H76        29.1062   22.4046   -2.1282 H         1 UNK         0.0873 
     77 H77        29.8562   23.1139    0.2039 H         1 UNK         0.0745 
     78 H78        29.4931   21.5081    0.7588 H         1 UNK         0.0745 
     79 H79        33.1975   20.6206    0.6826 H         1 UNK         0.0705 
     80 H80        31.6267   20.0804    1.2222 H         1 UNK         0.0705 
     81 H81        33.9453   23.0131    1.1869 H         1 UNK         0.1334 
     82 H82        32.0975   24.8551    4.6064 H         1 UNK         0.1417 
     83 H83        30.4130   21.3160    2.9168 H         1 UNK         0.1562 
     84 H84        30.1642   23.8931    5.6237 H         1 UNK         0.0748 
     85 H85        29.8805   22.1953    5.3350 H         1 UNK         0.0748 
     86 H86        28.3226   25.3598    5.5244 H         1 UNK         0.0940 
     87 H87        26.9819   25.3789    4.4155 H         1 UNK         0.0940 
     88 H88        29.8482   26.1498    3.6915 H         1 UNK         0.0703 
     89 H89        27.6005   25.7177    1.9551 H         1 UNK         0.3081 
     90 H90        28.4836   27.9755   -0.5614 H         1 UNK         0.0719 
     91 H91        30.4139   26.5331   -1.1266 H         1 UNK         0.0809 
     92 H92        29.0437   26.1574   -2.1595 H         1 UNK         0.0809 
     93 H93        29.4616   25.0910   -0.8223 H         1 UNK         0.0809 
     94 H94        26.9865   25.5082   -0.6663 H         1 UNK         0.2990 
     95 H95        24.1597   26.6370    1.0329 H         1 UNK         0.0690 
     96 H96        22.8065   26.5338   -1.0465 H         1 UNK         0.0788 
     97 H97        24.2573   26.7309   -2.0322 H         1 UNK         0.0788 
     98 H98        23.7082   28.0381   -0.9925 H         1 UNK         0.0788 
     99 H99        24.3478   24.5421   -0.8579 H         1 UNK         0.2993 
    100 H100       25.0960   22.0874    1.4394 H         1 UNK         0.0949 
    101 H101       23.2410   22.5553   -0.2051 H         1 UNK         0.0767 
    102 H102       24.4266   22.6321   -1.5099 H         1 UNK         0.0767 
    103 H103       24.1766   21.1347   -0.6263 H         1 UNK         0.0767 
    104 H104       26.9510   21.2683    0.4674 H         1 UNK         0.3013 
    105 H105       30.4116   28.0373    4.5311 H         1 UNK         0.3121 
    106 H106       30.5142   30.1446    5.2035 H         1 UNK         0.0774 
    107 H107       28.8204   30.9874    6.7879 H         1 UNK         0.0815 
    108 H108       27.6831   29.7394    6.3037 H         1 UNK         0.0815 
    109 H109       29.1752   29.3036    7.1363 H         1 UNK         0.0815 
    110 H110       30.1085   29.9518    2.5721 H         1 UNK         0.2987 
    111 H111       28.0337   31.3955    1.3933 H         1 UNK         0.0949 
    112 H112       29.6032   29.9728    0.1164 H         1 UNK         0.0806 
    113 H113       29.6385   31.5976   -0.5395 H         1 UNK         0.0806 
    114 H114       30.9491   31.0454    0.4956 H         1 UNK         0.0806 
    115 H115       31.0057   32.6311    2.8893 H         1 UNK         0.3010 
    116 H116       29.8906   35.3315    2.9800 H         1 UNK         0.0829 
    117 H117       31.1755   35.3583    0.8181 H         1 UNK         0.0813 
    118 H118       31.9274   36.3962    2.0073 H         1 UNK         0.0813 
    119 H119       32.6209   34.8094    1.6538 H         1 UNK         0.0813 
    120 H120       32.9437   35.8952    3.6905 H         1 UNK         0.3038 
    121 H121       32.7661   35.4673    6.5293 H         1 UNK         0.0769 
    122 H122       35.1530   36.2430    4.7607 H         1 UNK         0.0811 
    123 H123       35.0956   36.3700    6.5128 H         1 UNK         0.0811 
    124 H124       34.0323   37.3657    5.5342 H         1 UNK         0.0811 
    125 H125       33.7243   33.4156    3.9520 H         1 UNK         0.3204 
    126 H126       34.4346   31.2639    5.7949 H         1 UNK         0.0748 
    127 H127       36.3125   30.5290    4.3021 H         1 UNK         0.0771 
    128 H128       36.1005   31.9523    3.2913 H         1 UNK         0.0771 
    129 H129       36.6651   32.1208    4.9525 H         1 UNK         0.0771 
    130 H130       34.2920   29.1641    4.4807 H         1 UNK         0.2980 
    131 H131       31.8759   29.1803    2.8745 H         1 UNK         0.0545 
    132 H132       31.6993   28.0402    0.7729 H         1 UNK         0.3459 
    133 H133       33.0030   28.2738   -0.3813 H         1 UNK         0.3459 
    134 H134       32.0734   27.4080    4.4799 H         1 UNK         0.0616 
    135 H135       32.0973   26.7153    2.8862 H         1 UNK         0.0616 
    136 H136       34.2421   25.5732    1.8159 H         1 UNK         0.0634 
    137 H137       35.2301   24.6265    2.9019 H         1 UNK         0.0634 
@<TRIPOS>BOND
     1    1    2 1    
     2    1   72 1    
     3    1   73 1    
     4    1   74 1    
     5    2    3 2    
     6    2    4 am   BACKBONE|DICT|INTERRES
     7    4    5 1    
     8    4   75 1    
     9    5    6 1    
    10    5   35 1    
    11    5   76 1    
    12    6    7 1    
    13    6   77 1    
    14    6   78 1    
    15    7    8 1    
    16    8    9 1    
    17    8   79 1    
    18    8   80 1    
    19    9   10 ar   
    20    9   14 ar   
    21   10   11 ar   
    22   10   81 1    
    23   11   12 ar   
    24   11   71 1    
    25   12   13 ar   
    26   12   82 1    
    27   13   14 ar   
    28   13   15 1    
    29   14   83 1    
    30   15   16 1    
    31   15   84 1    
    32   15   85 1    
    33   16   17 1    
    34   17   18 1    
    35   17   86 1    
    36   17   87 1    
    37   18   19 1    
    38   18   37 1    
    39   18   88 1    
    40   19   20 am   BACKBONE|DICT|INTERRES
    41   19   89 1    
    42   20   21 2    
    43   20   22 1    
    44   22   23 1    
    45   22   24 1    
    46   22   90 1    
    47   23   91 1    
    48   23   92 1    
    49   23   93 1    
    50   24   25 am   BACKBONE|DICT|INTERRES
    51   24   94 1    
    52   25   26 2    
    53   25   27 1    
    54   27   28 1    
    55   27   29 1    
    56   27   95 1    
    57   28   96 1    
    58   28   97 1    
    59   28   98 1    
    60   29   30 am   BACKBONE|DICT|INTERRES
    61   29   99 1    
    62   30   31 2    
    63   30   32 1    
    64   32   33 1    
    65   32   34 1    
    66   32  100 1    
    67   33  101 1    
    68   33  102 1    
    69   33  103 1    
    70   34   35 am   BACKBONE|DICT|INTERRES
    71   34  104 1    
    72   35   36 2    
    73   37   38 2    
    74   37   39 am   BACKBONE|DICT|INTERRES
    75   39   40 1    
    76   39  105 1    
    77   40   41 1    
    78   40   42 1    
    79   40  106 1    
    80   41  107 1    
    81   41  108 1    
    82   41  109 1    
    83   42   43 2    
    84   42   44 am   BACKBONE|DICT|INTERRES
    85   44   45 1    
    86   44  110 1    
    87   45   46 1    
    88   45   47 1    
    89   45  111 1    
    90   46  112 1    
    91   46  113 1    
    92   46  114 1    
    93   47   48 2    
    94   47   49 am   BACKBONE|DICT|INTERRES
    95   49   50 1    
    96   49  115 1    
    97   50   51 1    
    98   50   52 1    
    99   50  116 1    
   100   51  117 1    
   101   51  118 1    
   102   51  119 1    
   103   52   53 2    
   104   52   54 am   BACKBONE|DICT|INTERRES
   105   54   55 1    
   106   54  120 1    
   107   55   56 1    
   108   55   57 1    
   109   55  121 1    
   110   56  122 1    
   111   56  123 1    
   112   56  124 1    
   113   57   58 2    
   114   57   59 am   BACKBONE|DICT|INTERRES
   115   59   60 1    
   116   59  125 1    
   117   60   61 1    
   118   60   62 1    
   119   60  126 1    
   120   61  127 1    
   121   61  128 1    
   122   61  129 1    
   123   62   63 2    
   124   62   64 am   BACKBONE|DICT|INTERRES
   125   64   65 1    
   126   64  130 1    
   127   65   66 1    
   128   65   69 1    
   129   65  131 1    
   130   66   67 am   BACKBONE|DICT|INTERRES
   131   66   68 2    
   132   67  132 1    
   133   67  133 1    
   134   69   70 1    
   135   69  134 1    
   136   69  135 1    
   137   70   71 1    
   138   71  136 1    
   139   71  137 1    
@<TRIPOS>SUBSTRUCTURE
     1 UNK         1 GROUP             0       ****    0 ROOT    
