@<TRIPOS>MOLECULE
3R136
137   139    1
SMALL
USER_CHARGES


@<TRIPOS>ATOM
      1 CA         25.7895   25.9993    4.5916 C.3       0 UNK        -0.1979 
      2 C          26.5622   25.4748    3.3906 C.2       0 UNK         0.4864 
      3 O          27.0908   26.2752    2.6187 O.2       0 UNK        -0.5359 
      4 N          26.6468   24.1437    3.2473 N.am      1 UNK        -0.4318 
      5 CA         27.1923   23.4052    2.0975 C.3       1 UNK         0.0824 
      6 C6         28.6093   23.8816    1.6647 C.3       12 UNK        -0.0944 
      7 S7         29.5693   22.6023    0.7839 S.3       12 UNK        -0.2672 
      8 C8         31.0776   22.4582    1.8071 C.3       12 UNK         0.0333 
      9 C9         31.8909   23.7486    1.8575 C.ar      12 UNK        -0.0807 
     10 C10        32.2758   24.2907    3.0880 C.ar      12 UNK        -0.0894 
     11 C11        32.9786   25.4990    3.1461 C.ar      12 UNK        -0.0804 
     12 C12        33.3066   26.1623    1.9611 C.ar      12 UNK        -0.0824 
     13 C13        32.9420   25.6238    0.7246 C.ar      12 UNK        -0.0762 
     14 C14        32.2533   24.4075    0.6787 C.ar      12 UNK        -0.0782 
     15 C15        33.2583   26.3724   -0.5626 C.3       12 UNK         0.0230 
     16 S16        32.2617   27.8897   -0.7480 S.3       12 UNK        -0.2608 
     17 C17        30.5495   27.2533   -0.6614 C.3       12 UNK        -0.0989 
     18 CA         29.5556   28.1924    0.0656 C.3       5 UNK         0.0716 
     19 N          28.1981   27.6629   -0.0230 N.am      5 UNK        -0.4135 
     20 C          27.0689   28.3622    0.1459 C.2       4 UNK         0.5031 
     21 O          27.0450   29.5452    0.4878 O.2       4 UNK        -0.5229 
     22 CA         25.7505   27.6046   -0.1331 C.3       4 UNK         0.0329 
     23 CB         24.6057   28.5413   -0.5734 C.3       4 UNK        -0.2001 
     24 N          25.9174   26.4791   -1.0703 N.am      4 UNK        -0.4303 
     25 C          26.3084   26.5451   -2.3563 C.2       3 UNK         0.5044 
     26 O          26.4749   27.6046   -2.9611 O.2       3 UNK        -0.5152 
     27 CA         26.6311   25.2261   -3.0899 C.3       3 UNK         0.0319 
     28 CB         28.0701   25.2477   -3.6374 C.3       3 UNK        -0.2001 
     29 N          26.4842   24.0394   -2.2450 N.am      3 UNK        -0.4354 
     30 C          25.3618   23.3216   -2.1123 C.2       2 UNK         0.4964 
     31 O          24.3200   23.5525   -2.7264 O.2       2 UNK        -0.5047 
     32 CA         25.4036   22.1611   -1.0998 C.3       2 UNK         0.0288 
     33 CB         25.7968   20.8506   -1.8010 C.3       2 UNK        -0.2113 
     34 N          26.3004   22.3866    0.0433 N.am      2 UNK        -0.4145 
     35 C          26.1819   23.3887    0.9263 C.2       1 UNK         0.5006 
     36 O          25.3222   24.2679    0.8252 O.2       1 UNK        -0.5103 
     37 C          29.9565   28.5215    1.5189 C.2       5 UNK         0.5055 
     38 O          30.4766   29.6121    1.7523 O.2       5 UNK        -0.5220 
     39 N          29.6600   27.6304    2.4798 N.am      6 UNK        -0.4450 
     40 CA         29.9971   27.8273    3.8983 C.3       6 UNK         0.0367 
     41 CB         29.7981   26.5240    4.6882 C.3       6 UNK        -0.1929 
     42 C          29.1826   28.9553    4.5481 C.2       6 UNK         0.5070 
     43 O          29.6591   29.5901    5.4886 O.2       6 UNK        -0.5237 
     44 N          27.9751   29.1961    4.0206 N.am      7 UNK        -0.4739 
     45 CA         27.1304   30.3349    4.3765 C.3       7 UNK         0.0276 
     46 CB         25.7047   30.0816    3.8597 C.3       7 UNK        -0.1927 
     47 C          27.6754   31.6758    3.8461 C.2       7 UNK         0.5013 
     48 O          27.2944   32.7198    4.3776 O.2       7 UNK        -0.5193 
     49 N          28.5378   31.6343    2.8196 N.am      8 UNK        -0.4253 
     50 CA         29.1546   32.8063    2.2062 C.3       8 UNK         0.0242 
     51 CB         29.2697   32.6046    0.6849 C.3       8 UNK        -0.2000 
     52 C          30.5213   33.1228    2.8304 C.2       8 UNK         0.4948 
     53 O          30.7256   34.2654    3.2444 O.2       8 UNK        -0.5275 
     54 N          31.4396   32.1446    2.8758 N.am      9 UNK        -0.4246 
     55 CA         32.8318   32.3568    3.2867 C.3       9 UNK         0.0261 
     56 CB         33.5902   33.1057    2.1660 C.3       9 UNK        -0.1959 
     57 C          33.5433   31.0362    3.6227 C.2       9 UNK         0.5033 
     58 O          33.0093   29.9581    3.3620 O.2       9 UNK        -0.5390 
     59 N          34.7716   31.1714    4.1467 N.am      10 UNK        -0.4215 
     60 CA         35.7543   30.1218    4.4507 C.3       10 UNK         0.0240 
     61 CB         36.1126   29.3218    3.1768 C.3       10 UNK        -0.1982 
     62 C          35.3610   29.2087    5.6290 C.2       10 UNK         0.4970 
     63 O          34.3393   29.4285    6.2827 O.2       10 UNK        -0.4916 
     64 N          36.2279   28.2227    5.8981 N.am      11 UNK        -0.4279 
     65 CA         36.1199   27.2141    6.9692 C.3       11 UNK         0.1003 
     66 C          36.2332   27.7800    8.4191 C.2       11 UNK         0.5709 
     67 N          36.7397   28.9913    8.6185 N.am      11 UNK        -0.7358 
     68 O          35.8921   27.1012    9.3854 O.2       11 UNK        -0.4999 
     69 C69        34.9083   26.2540    6.7913 C.3       12 UNK        -0.0954 
     70 S70        34.8761   25.4289    5.1620 S.3       12 UNK        -0.2268 
     71 C71        33.3354   26.1140    4.4897 C.3       12 UNK         0.0203 
     72 H72        26.3691   26.7589    5.1150 H         1 UNK         0.0888 
     73 H73        24.8568   26.4546    4.2602 H         1 UNK         0.0888 
     74 H74        25.5506   25.2070    5.3005 H         1 UNK         0.0888 
     75 H75        26.1815   23.5627    3.9305 H         1 UNK         0.3017 
     76 H76        27.2775   22.3766    2.4524 H         1 UNK         0.0873 
     77 H77        29.1747   24.1809    2.5476 H         1 UNK         0.0745 
     78 H78        28.5560   24.7695    1.0337 H         1 UNK         0.0745 
     79 H79        30.7901   22.1391    2.8102 H         1 UNK         0.0705 
     80 H80        31.7046   21.6648    1.3986 H         1 UNK         0.0705 
     81 H81        32.0092   23.7862    4.0068 H         1 UNK         0.1334 
     82 H82        33.8206   27.1124    1.9988 H         1 UNK         0.1417 
     83 H83        31.9616   23.9898   -0.2754 H         1 UNK         0.1562 
     84 H84        33.0969   25.7343   -1.4329 H         1 UNK         0.0748 
     85 H85        34.3156   26.6406   -0.5722 H         1 UNK         0.0748 
     86 H86        30.5289   26.2704   -0.1937 H         1 UNK         0.0940 
     87 H87        30.2177   27.0966   -1.6889 H         1 UNK         0.0940 
     88 H88        29.5577   29.1402   -0.4780 H         1 UNK         0.0703 
     89 H89        28.1051   26.6922   -0.2742 H         1 UNK         0.3081 
     90 H90        25.4500   27.1599    0.8157 H         1 UNK         0.0719 
     91 H91        23.6887   27.9843   -0.7648 H         1 UNK         0.0809 
     92 H92        24.3827   29.2740    0.2032 H         1 UNK         0.0809 
     93 H93        24.8583   29.0965   -1.4770 H         1 UNK         0.0809 
     94 H94        25.7626   25.5647   -0.6566 H         1 UNK         0.2990 
     95 H95        25.9481   25.1565   -3.9392 H         1 UNK         0.0690 
     96 H96        28.8074   25.3268   -2.8379 H         1 UNK         0.0788 
     97 H97        28.2253   26.0928   -4.3096 H         1 UNK         0.0788 
     98 H98        28.2898   24.3440   -4.2064 H         1 UNK         0.0788 
     99 H99        27.2932   23.7582   -1.7100 H         1 UNK         0.2993 
    100 H100       24.3922   22.0470   -0.7034 H         1 UNK         0.0949 
    101 H101       26.8156   20.8899   -2.1891 H         1 UNK         0.0767 
    102 H102       25.7279   20.0004   -1.1219 H         1 UNK         0.0767 
    103 H103       25.1345   20.6439   -2.6431 H         1 UNK         0.0767 
    104 H104       27.0480   21.7181    0.1710 H         1 UNK         0.3013 
    105 H105       29.0800   26.8302    2.2561 H         1 UNK         0.3121 
    106 H106       31.0528   28.1021    3.9494 H         1 UNK         0.0774 
    107 H107       28.7482   26.3151    4.8765 H         1 UNK         0.0815 
    108 H108       30.2798   26.5927    5.6640 H         1 UNK         0.0815 
    109 H109       30.2189   25.6656    4.1715 H         1 UNK         0.0815 
    110 H110       27.6578   28.6021    3.2648 H         1 UNK         0.2987 
    111 H111       27.0925   30.4064    5.4658 H         1 UNK         0.0949 
    112 H112       25.6768   30.0003    2.7728 H         1 UNK         0.0806 
    113 H113       25.2873   29.1648    4.2759 H         1 UNK         0.0806 
    114 H114       25.0377   30.8975    4.1416 H         1 UNK         0.0806 
    115 H115       28.8405   30.7331    2.4691 H         1 UNK         0.3010 
    116 H116       28.5107   33.6743    2.3647 H         1 UNK         0.0829 
    117 H117       28.2958   32.4005    0.2391 H         1 UNK         0.0813 
    118 H118       29.6662   33.5001    0.2048 H         1 UNK         0.0813 
    119 H119       29.9321   31.7793    0.4252 H         1 UNK         0.0813 
    120 H120       31.2139   31.2012    2.5581 H         1 UNK         0.3038 
    121 H121       32.8352   32.9642    4.1944 H         1 UNK         0.0769 
    122 H122       33.5924   32.5323    1.2381 H         1 UNK         0.0811 
    123 H123       34.6302   33.2931    2.4345 H         1 UNK         0.0811 
    124 H124       33.1440   34.0772    1.9544 H         1 UNK         0.0811 
    125 H125       35.0825   32.1099    4.3557 H         1 UNK         0.3204 
    126 H126       36.6533   30.6524    4.7683 H         1 UNK         0.0748 
    127 H127       35.3007   28.6605    2.8760 H         1 UNK         0.0771 
    128 H128       36.3276   29.9858    2.3394 H         1 UNK         0.0771 
    129 H129       36.9974   28.7021    3.3237 H         1 UNK         0.0771 
    130 H130       37.0516   28.1405    5.3208 H         1 UNK         0.2980 
    131 H131       37.0159   26.6022    6.8610 H         1 UNK         0.0545 
    132 H132       36.8197   29.3429    9.5596 H         1 UNK         0.3459 
    133 H133       37.0372   29.5570    7.8405 H         1 UNK         0.3459 
    134 H134       34.9381   25.4631    7.5427 H         1 UNK         0.0616 
    135 H135       33.9727   26.7894    6.9600 H         1 UNK         0.0616 
    136 H136       33.4268   27.1977    4.4001 H         1 UNK         0.0634 
    137 H137       32.5322   25.9286    5.2022 H         1 UNK         0.0634 
@<TRIPOS>BOND
     1    1    2 1    
     2    1   72 1    
     3    1   73 1    
     4    1   74 1    
     5    2    3 2    
     6    2    4 am   BACKBONE|DICT|INTERRES
     7    4    5 1    
     8    4   75 1    
     9    5    6 1    
    10    5   35 1    
    11    5   76 1    
    12    6    7 1    
    13    6   77 1    
    14    6   78 1    
    15    7    8 1    
    16    8    9 1    
    17    8   79 1    
    18    8   80 1    
    19    9   10 ar   
    20    9   14 ar   
    21   10   11 ar   
    22   10   81 1    
    23   11   12 ar   
    24   11   71 1    
    25   12   13 ar   
    26   12   82 1    
    27   13   14 ar   
    28   13   15 1    
    29   14   83 1    
    30   15   16 1    
    31   15   84 1    
    32   15   85 1    
    33   16   17 1    
    34   17   18 1    
    35   17   86 1    
    36   17   87 1    
    37   18   19 1    
    38   18   37 1    
    39   18   88 1    
    40   19   20 am   BACKBONE|DICT|INTERRES
    41   19   89 1    
    42   20   21 2    
    43   20   22 1    
    44   22   23 1    
    45   22   24 1    
    46   22   90 1    
    47   23   91 1    
    48   23   92 1    
    49   23   93 1    
    50   24   25 am   BACKBONE|DICT|INTERRES
    51   24   94 1    
    52   25   26 2    
    53   25   27 1    
    54   27   28 1    
    55   27   29 1    
    56   27   95 1    
    57   28   96 1    
    58   28   97 1    
    59   28   98 1    
    60   29   30 am   BACKBONE|DICT|INTERRES
    61   29   99 1    
    62   30   31 2    
    63   30   32 1    
    64   32   33 1    
    65   32   34 1    
    66   32  100 1    
    67   33  101 1    
    68   33  102 1    
    69   33  103 1    
    70   34   35 am   BACKBONE|DICT|INTERRES
    71   34  104 1    
    72   35   36 2    
    73   37   38 2    
    74   37   39 am   BACKBONE|DICT|INTERRES
    75   39   40 1    
    76   39  105 1    
    77   40   41 1    
    78   40   42 1    
    79   40  106 1    
    80   41  107 1    
    81   41  108 1    
    82   41  109 1    
    83   42   43 2    
    84   42   44 am   BACKBONE|DICT|INTERRES
    85   44   45 1    
    86   44  110 1    
    87   45   46 1    
    88   45   47 1    
    89   45  111 1    
    90   46  112 1    
    91   46  113 1    
    92   46  114 1    
    93   47   48 2    
    94   47   49 am   BACKBONE|DICT|INTERRES
    95   49   50 1    
    96   49  115 1    
    97   50   51 1    
    98   50   52 1    
    99   50  116 1    
   100   51  117 1    
   101   51  118 1    
   102   51  119 1    
   103   52   53 2    
   104   52   54 am   BACKBONE|DICT|INTERRES
   105   54   55 1    
   106   54  120 1    
   107   55   56 1    
   108   55   57 1    
   109   55  121 1    
   110   56  122 1    
   111   56  123 1    
   112   56  124 1    
   113   57   58 2    
   114   57   59 am   BACKBONE|DICT|INTERRES
   115   59   60 1    
   116   59  125 1    
   117   60   61 1    
   118   60   62 1    
   119   60  126 1    
   120   61  127 1    
   121   61  128 1    
   122   61  129 1    
   123   62   63 2    
   124   62   64 am   BACKBONE|DICT|INTERRES
   125   64   65 1    
   126   64  130 1    
   127   65   66 1    
   128   65   69 1    
   129   65  131 1    
   130   66   67 am   BACKBONE|DICT|INTERRES
   131   66   68 2    
   132   67  132 1    
   133   67  133 1    
   134   69   70 1    
   135   69  134 1    
   136   69  135 1    
   137   70   71 1    
   138   71  136 1    
   139   71  137 1    
@<TRIPOS>SUBSTRUCTURE
     1 UNK         1 GROUP             0       ****    0 ROOT    
