@<TRIPOS>MOLECULE
3R136
137   139    1
SMALL
USER_CHARGES


@<TRIPOS>ATOM
      1 CA         27.7402   20.1851    2.7714 C.3       0 UNK        -0.1979 
      2 C          27.7042   20.7754    1.3701 C.2       0 UNK         0.4864 
      3 O          26.7723   20.5022    0.6123 O.2       0 UNK        -0.5359 
      4 N          28.7051   21.5939    1.0226 N.am      1 UNK        -0.4318 
      5 CA         28.9165   22.2376   -0.2848 C.3       1 UNK         0.0824 
      6 C6         30.3932   22.6908   -0.4721 C.3       12 UNK        -0.0944 
      7 S7         31.6053   21.3811   -0.0735 S.3       12 UNK        -0.2672 
      8 C8         33.1222   22.3384    0.2829 C.3       12 UNK         0.0333 
      9 C9         32.9675   23.3826    1.3877 C.ar      12 UNK        -0.0807 
     10 C10        33.5515   24.6447    1.2282 C.ar      12 UNK        -0.0894 
     11 C11        33.4029   25.6345    2.2075 C.ar      12 UNK        -0.0804 
     12 C12        32.6679   25.3406    3.3586 C.ar      12 UNK        -0.0824 
     13 C13        32.0743   24.0871    3.5355 C.ar      12 UNK        -0.0762 
     14 C14        32.2522   23.1031    2.5585 C.ar      12 UNK        -0.0782 
     15 C15        31.2433   23.8166    4.7871 C.3       12 UNK         0.0230 
     16 S16        29.5780   23.1370    4.4497 S.3       12 UNK        -0.2608 
     17 C17        28.8619   24.1906    3.1365 C.3       12 UNK        -0.0989 
     18 CA         29.0642   25.7179    3.2537 C.3       5 UNK         0.0716 
     19 N          28.9152   26.3557    1.9447 N.am      5 UNK        -0.4135 
     20 C          29.6292   27.4098    1.5301 C.2       4 UNK         0.5031 
     21 O          30.5220   27.9290    2.1923 O.2       4 UNK        -0.5229 
     22 CA         29.2788   28.0100    0.1571 C.3       4 UNK         0.0329 
     23 CB         30.2065   27.4513   -0.9324 C.3       4 UNK        -0.2001 
     24 N          27.8821   27.7913   -0.2260 N.am      4 UNK        -0.4303 
     25 C          26.8381   28.3535    0.3999 C.2       3 UNK         0.5044 
     26 O          26.9522   29.1471    1.3329 O.2       3 UNK        -0.5152 
     27 CA         25.4298   27.9176   -0.0404 C.3       3 UNK         0.0319 
     28 CB         24.8912   28.8644   -1.1239 C.3       3 UNK        -0.2001 
     29 N          25.3465   26.5333   -0.5175 N.am      3 UNK        -0.4354 
     30 C          25.6839   25.4397    0.1820 C.2       2 UNK         0.4964 
     31 O          26.1419   25.4812    1.3271 O.2       2 UNK        -0.5047 
     32 CA         25.4919   24.0734   -0.5116 C.3       2 UNK         0.0288 
     33 CB         25.1690   24.1724   -2.0208 C.3       2 UNK        -0.2113 
     34 N          26.6263   23.1648   -0.3063 N.am      2 UNK        -0.4145 
     35 C          27.9214   23.3951   -0.5653 C.2       1 UNK         0.5006 
     36 O          28.3382   24.4706   -1.0004 O.2       1 UNK        -0.5103 
     37 C          28.1540   26.3721    4.3083 C.2       5 UNK         0.5055 
     38 O          28.5079   26.3708    5.4874 O.2       5 UNK        -0.5220 
     39 N          27.0298   26.9683    3.8817 N.am      6 UNK        -0.4450 
     40 CA         26.2007   27.8344    4.7246 C.3       6 UNK         0.0367 
     41 CB         24.8628   28.1276    4.0271 C.3       6 UNK        -0.1929 
     42 C          26.9366   29.1376    5.0878 C.2       6 UNK         0.5070 
     43 O          26.9589   29.5189    6.2577 O.2       6 UNK        -0.5237 
     44 N          27.5689   29.7667    4.0887 N.am      7 UNK        -0.4739 
     45 CA         28.4064   30.9586    4.2287 C.3       7 UNK         0.0276 
     46 CB         28.0828   31.9261    3.0744 C.3       7 UNK        -0.1927 
     47 C          29.8970   30.5747    4.2649 C.2       7 UNK         0.5013 
     48 O          30.6942   31.1514    3.5212 O.2       7 UNK        -0.5193 
     49 N          30.2560   29.6151    5.1328 N.am      8 UNK        -0.4253 
     50 CA         31.5919   29.0071    5.2487 C.3       8 UNK         0.0242 
     51 CB         31.5841   27.9592    6.3733 C.3       8 UNK        -0.2000 
     52 C          32.7609   29.9869    5.4528 C.2       8 UNK         0.4948 
     53 O          33.8775   29.6829    5.0326 O.2       8 UNK        -0.5275 
     54 N          32.4884   31.1419    6.0753 N.am      9 UNK        -0.4246 
     55 CA         33.4484   32.2320    6.2639 C.3       9 UNK         0.0261 
     56 CB         32.8777   33.2350    7.2798 C.3       9 UNK        -0.1959 
     57 C          33.8313   32.9523    4.9561 C.2       9 UNK         0.5033 
     58 O          34.9177   33.5302    4.8946 O.2       9 UNK        -0.5390 
     59 N          32.9455   32.9196    3.9509 N.am      10 UNK        -0.4215 
     60 CA         33.1527   33.5220    2.6334 C.3       10 UNK         0.0240 
     61 CB         31.8968   34.3168    2.2365 C.3       10 UNK        -0.1982 
     62 C          33.4674   32.4562    1.5742 C.2       10 UNK         0.4970 
     63 O          34.3337   32.6884    0.7306 O.2       10 UNK        -0.4916 
     64 N          32.7577   31.3207    1.6298 N.am      11 UNK        -0.4279 
     65 CA         32.8221   30.2168    0.6607 C.3       11 UNK         0.1003 
     66 C          32.3108   30.5889   -0.7665 C.2       11 UNK         0.5709 
     67 N          31.4194   31.5648   -0.9007 N.am      11 UNK        -0.7358 
     68 O          32.7028   29.9875   -1.7632 O.2       11 UNK        -0.4999 
     69 C69        34.1908   29.4730    0.6861 C.3       12 UNK        -0.0954 
     70 S70        34.0015   27.6849    0.3691 S.3       12 UNK        -0.2268 
     71 C71        34.0338   27.0202    2.0668 C.3       12 UNK         0.0203 
     72 H72        28.6934   20.3704    3.2662 H         1 UNK         0.0888 
     73 H73        26.9493   20.6199    3.3819 H         1 UNK         0.0888 
     74 H74        27.5872   19.1071    2.7296 H         1 UNK         0.0888 
     75 H75        29.4397   21.7621    1.6941 H         1 UNK         0.3017 
     76 H76        28.7152   21.4826   -1.0477 H         1 UNK         0.0873 
     77 H77        30.5664   23.0040   -1.5034 H         1 UNK         0.0745 
     78 H78        30.5972   23.5669    0.1452 H         1 UNK         0.0745 
     79 H79        33.4471   22.8120   -0.6450 H         1 UNK         0.0705 
     80 H80        33.9139   21.6448    0.5683 H         1 UNK         0.0705 
     81 H81        34.1204   24.8586    0.3340 H         1 UNK         0.1334 
     82 H82        32.5453   26.1012    4.1170 H         1 UNK         0.1417 
     83 H83        31.8087   22.1273    2.6993 H         1 UNK         0.1562 
     84 H84        31.1286   24.7236    5.3826 H         1 UNK         0.0748 
     85 H85        31.7842   23.1102    5.4180 H         1 UNK         0.0748 
     86 H86        27.8041   23.9442    3.0227 H         1 UNK         0.0940 
     87 H87        29.3402   23.8643    2.2153 H         1 UNK         0.0940 
     88 H88        30.0774   25.9103    3.5944 H         1 UNK         0.0703 
     89 H89        28.1708   26.0032    1.3541 H         1 UNK         0.3081 
     90 H90        29.4440   29.0879    0.2226 H         1 UNK         0.0719 
     91 H91        30.0948   26.3740   -1.0512 H         1 UNK         0.0809 
     92 H92        30.0169   27.9209   -1.8975 H         1 UNK         0.0809 
     93 H93        31.2510   27.6371   -0.6846 H         1 UNK         0.0809 
     94 H94        27.7074   27.1163   -0.9581 H         1 UNK         0.2990 
     95 H95        24.7783   27.9958    0.8315 H         1 UNK         0.0690 
     96 H96        25.4787   28.8056   -2.0411 H         1 UNK         0.0788 
     97 H97        24.9192   29.9012   -0.7848 H         1 UNK         0.0788 
     98 H98        23.8545   28.6359   -1.3725 H         1 UNK         0.0788 
     99 H99        24.9921   26.4012   -1.4540 H         1 UNK         0.2993 
    100 H100       24.6374   23.6084   -0.0179 H         1 UNK         0.0949 
    101 H101       25.9632   24.6729   -2.5768 H         1 UNK         0.0767 
    102 H102       25.0410   23.1812   -2.4566 H         1 UNK         0.0767 
    103 H103       24.2385   24.7129   -2.1988 H         1 UNK         0.0767 
    104 H104       26.4013   22.2438    0.0644 H         1 UNK         0.3013 
    105 H105       26.7679   26.8757    2.9085 H         1 UNK         0.3121 
    106 H106       25.9872   27.2980    5.6518 H         1 UNK         0.0774 
    107 H107       24.1980   28.6846    4.6885 H         1 UNK         0.0815 
    108 H108       24.9943   28.7263    3.1263 H         1 UNK         0.0815 
    109 H109       24.3479   27.2079    3.7488 H         1 UNK         0.0815 
    110 H110       27.4747   29.4002    3.1438 H         1 UNK         0.2987 
    111 H111       28.1819   31.4709    5.1667 H         1 UNK         0.0949 
    112 H112       28.3309   31.4922    2.1046 H         1 UNK         0.0806 
    113 H113       27.0247   32.1875    3.0616 H         1 UNK         0.0806 
    114 H114       28.6447   32.8559    3.1713 H         1 UNK         0.0806 
    115 H115       29.5265   29.2024    5.6979 H         1 UNK         0.3010 
    116 H116       31.7879   28.4908    4.3093 H         1 UNK         0.0829 
    117 H117       32.5664   27.4986    6.4885 H         1 UNK         0.0813 
    118 H118       31.3158   28.4001    7.3340 H         1 UNK         0.0813 
    119 H119       30.8803   27.1557    6.1639 H         1 UNK         0.0813 
    120 H120       31.5456   31.2984    6.4010 H         1 UNK         0.3038 
    121 H121       34.3635   31.8062    6.6815 H         1 UNK         0.0769 
    122 H122       33.5838   34.0457    7.4658 H         1 UNK         0.0811 
    123 H123       32.6760   32.7582    8.2393 H         1 UNK         0.0811 
    124 H124       31.9501   33.6866    6.9256 H         1 UNK         0.0811 
    125 H125       32.0980   32.3711    4.0647 H         1 UNK         0.3204 
    126 H126       33.9935   34.2185    2.6621 H         1 UNK         0.0748 
    127 H127       32.0174   34.7733    1.2530 H         1 UNK         0.0771 
    128 H128       31.0090   33.6842    2.1979 H         1 UNK         0.0771 
    129 H129       31.7008   35.1220    2.9447 H         1 UNK         0.0771 
    130 H130       32.0314   31.2281    2.3377 H         1 UNK         0.2980 
    131 H131       32.0727   29.5223    1.0319 H         1 UNK         0.0545 
    132 H132       31.0801   32.0648   -0.0955 H         1 UNK         0.3459 
    133 H133       31.0880   31.8038   -1.8216 H         1 UNK         0.3459 
    134 H134       34.8828   29.8972   -0.0432 H         1 UNK         0.0616 
    135 H135       34.6758   29.5958    1.6561 H         1 UNK         0.0616 
    136 H136       33.5116   27.7259    2.7151 H         1 UNK         0.0634 
    137 H137       35.0665   26.9809    2.4148 H         1 UNK         0.0634 
@<TRIPOS>BOND
     1    1    2 1    
     2    1   72 1    
     3    1   73 1    
     4    1   74 1    
     5    2    3 2    
     6    2    4 am   BACKBONE|DICT|INTERRES
     7    4    5 1    
     8    4   75 1    
     9    5    6 1    
    10    5   35 1    
    11    5   76 1    
    12    6    7 1    
    13    6   77 1    
    14    6   78 1    
    15    7    8 1    
    16    8    9 1    
    17    8   79 1    
    18    8   80 1    
    19    9   10 ar   
    20    9   14 ar   
    21   10   11 ar   
    22   10   81 1    
    23   11   12 ar   
    24   11   71 1    
    25   12   13 ar   
    26   12   82 1    
    27   13   14 ar   
    28   13   15 1    
    29   14   83 1    
    30   15   16 1    
    31   15   84 1    
    32   15   85 1    
    33   16   17 1    
    34   17   18 1    
    35   17   86 1    
    36   17   87 1    
    37   18   19 1    
    38   18   37 1    
    39   18   88 1    
    40   19   20 am   BACKBONE|DICT|INTERRES
    41   19   89 1    
    42   20   21 2    
    43   20   22 1    
    44   22   23 1    
    45   22   24 1    
    46   22   90 1    
    47   23   91 1    
    48   23   92 1    
    49   23   93 1    
    50   24   25 am   BACKBONE|DICT|INTERRES
    51   24   94 1    
    52   25   26 2    
    53   25   27 1    
    54   27   28 1    
    55   27   29 1    
    56   27   95 1    
    57   28   96 1    
    58   28   97 1    
    59   28   98 1    
    60   29   30 am   BACKBONE|DICT|INTERRES
    61   29   99 1    
    62   30   31 2    
    63   30   32 1    
    64   32   33 1    
    65   32   34 1    
    66   32  100 1    
    67   33  101 1    
    68   33  102 1    
    69   33  103 1    
    70   34   35 am   BACKBONE|DICT|INTERRES
    71   34  104 1    
    72   35   36 2    
    73   37   38 2    
    74   37   39 am   BACKBONE|DICT|INTERRES
    75   39   40 1    
    76   39  105 1    
    77   40   41 1    
    78   40   42 1    
    79   40  106 1    
    80   41  107 1    
    81   41  108 1    
    82   41  109 1    
    83   42   43 2    
    84   42   44 am   BACKBONE|DICT|INTERRES
    85   44   45 1    
    86   44  110 1    
    87   45   46 1    
    88   45   47 1    
    89   45  111 1    
    90   46  112 1    
    91   46  113 1    
    92   46  114 1    
    93   47   48 2    
    94   47   49 am   BACKBONE|DICT|INTERRES
    95   49   50 1    
    96   49  115 1    
    97   50   51 1    
    98   50   52 1    
    99   50  116 1    
   100   51  117 1    
   101   51  118 1    
   102   51  119 1    
   103   52   53 2    
   104   52   54 am   BACKBONE|DICT|INTERRES
   105   54   55 1    
   106   54  120 1    
   107   55   56 1    
   108   55   57 1    
   109   55  121 1    
   110   56  122 1    
   111   56  123 1    
   112   56  124 1    
   113   57   58 2    
   114   57   59 am   BACKBONE|DICT|INTERRES
   115   59   60 1    
   116   59  125 1    
   117   60   61 1    
   118   60   62 1    
   119   60  126 1    
   120   61  127 1    
   121   61  128 1    
   122   61  129 1    
   123   62   63 2    
   124   62   64 am   BACKBONE|DICT|INTERRES
   125   64   65 1    
   126   64  130 1    
   127   65   66 1    
   128   65   69 1    
   129   65  131 1    
   130   66   67 am   BACKBONE|DICT|INTERRES
   131   66   68 2    
   132   67  132 1    
   133   67  133 1    
   134   69   70 1    
   135   69  134 1    
   136   69  135 1    
   137   70   71 1    
   138   71  136 1    
   139   71  137 1    
@<TRIPOS>SUBSTRUCTURE
     1 UNK         1 GROUP             0       ****    0 ROOT    
