@<TRIPOS>MOLECULE
3R136
137   139    1
SMALL
USER_CHARGES


@<TRIPOS>ATOM
      1 CA         30.4582   31.2885   -3.9106 C.3       0 UNK        -0.1979 
      2 C          29.8984   30.4978   -2.7379 C.2       0 UNK         0.4864 
      3 O          29.4832   31.0958   -1.7447 O.2       0 UNK        -0.5359 
      4 N          29.9033   29.1622   -2.8406 N.am      1 UNK        -0.4318 
      5 CA         29.3506   28.2368   -1.8456 C.3       1 UNK         0.0824 
      6 C6         29.8886   26.7992   -2.0766 C.3       12 UNK        -0.0944 
      7 S7         29.8457   25.7848   -0.5613 S.3       12 UNK        -0.2672 
      8 C8         31.6091   25.7189   -0.1289 C.3       12 UNK         0.0333 
      9 C9         31.8085   25.2085    1.2885 C.ar      12 UNK        -0.0807 
     10 C10        32.0353   26.1069    2.3372 C.ar      12 UNK        -0.0894 
     11 C11        32.2191   25.6396    3.6417 C.ar      12 UNK        -0.0804 
     12 C12        32.1645   24.2656    3.8925 C.ar      12 UNK        -0.0824 
     13 C13        31.9195   23.3594    2.8558 C.ar      12 UNK        -0.0762 
     14 C14        31.7588   23.8361    1.5518 C.ar      12 UNK        -0.0782 
     15 C15        31.7933   21.8701    3.1535 C.3       12 UNK         0.0230 
     16 S16        30.0563   21.3036    3.1222 S.3       12 UNK        -0.2608 
     17 C17        29.2653   22.4689    4.2825 C.3       12 UNK        -0.0989 
     18 CA         28.5343   23.6028    3.5134 C.3       5 UNK         0.0716 
     19 N          27.2114   23.1694    3.0489 N.am      5 UNK        -0.4135 
     20 C          26.4629   23.8139    2.1455 C.2       4 UNK         0.5031 
     21 O          26.8354   24.8302    1.5548 O.2       4 UNK        -0.5229 
     22 CA         25.0647   23.2416    1.8580 C.3       4 UNK         0.0329 
     23 CB         24.2069   23.1435    3.1337 C.3       4 UNK        -0.2001 
     24 N          24.4077   24.1386    0.9139 N.am      4 UNK        -0.4303 
     25 C          23.7056   23.8017   -0.1713 C.2       3 UNK         0.5044 
     26 O          23.3985   22.6434   -0.4568 O.2       3 UNK        -0.5152 
     27 CA         23.2651   24.9546   -1.1010 C.3       3 UNK         0.0319 
     28 CB         21.7424   25.1564   -1.0236 C.3       3 UNK        -0.2001 
     29 N          23.9285   26.2359   -0.8165 N.am      3 UNK        -0.4354 
     30 C          25.2199   26.5038   -1.0615 C.2       2 UNK         0.4964 
     31 O          25.9705   25.7150   -1.6403 O.2       2 UNK        -0.5047 
     32 CA         25.7392   27.8662   -0.5509 C.3       2 UNK         0.0288 
     33 CB         25.3966   28.0936    0.9345 C.3       2 UNK        -0.2113 
     34 N          27.1883   27.9993   -0.7107 N.am      2 UNK        -0.4145 
     35 C          27.8066   28.2734   -1.8652 C.2       1 UNK         0.5006 
     36 O          27.2111   28.5245   -2.9186 O.2       1 UNK        -0.5103 
     37 C          28.4412   24.9081    4.3339 C.2       5 UNK         0.5055 
     38 O          28.3886   24.8636    5.5648 O.2       5 UNK        -0.5220 
     39 N          28.4078   26.0392    3.6247 N.am      6 UNK        -0.4450 
     40 CA         28.3449   27.4048    4.1256 C.3       6 UNK         0.0367 
     41 CB         26.9409   27.7071    4.6859 C.3       6 UNK        -0.1929 
     42 C          28.6954   28.3484    2.9670 C.2       6 UNK         0.5070 
     43 O          28.6841   27.9280    1.8065 O.2       6 UNK        -0.5237 
     44 N          28.9786   29.6120    3.3070 N.am      7 UNK        -0.4739 
     45 CA         29.4503   30.6738    2.4091 C.3       7 UNK         0.0276 
     46 CB         28.3933   31.0198    1.3376 C.3       7 UNK        -0.1927 
     47 C          30.8565   30.3667    1.8530 C.2       7 UNK         0.5013 
     48 O          31.6408   29.7184    2.5500 O.2       7 UNK        -0.5193 
     49 N          31.1886   30.8806    0.6590 N.am      8 UNK        -0.4253 
     50 CA         32.5205   30.8707    0.0367 C.3       8 UNK         0.0242 
     51 CB         32.8928   29.4494   -0.4423 C.3       8 UNK        -0.2000 
     52 C          33.5770   31.5065    0.9634 C.2       8 UNK         0.4948 
     53 O          33.5713   32.7258    1.1360 O.2       8 UNK        -0.5275 
     54 N          34.4306   30.6703    1.5694 N.am      9 UNK        -0.4246 
     55 CA         35.4231   31.0444    2.5793 C.3       9 UNK         0.0261 
     56 CB         36.4970   29.9438    2.6384 C.3       9 UNK        -0.1959 
     57 C          34.8268   31.2869    3.9816 C.2       9 UNK         0.5033 
     58 O          35.5757   31.6639    4.8835 O.2       9 UNK        -0.5390 
     59 N          33.5252   31.0198    4.1704 N.am      10 UNK        -0.4215 
     60 CA         32.7165   31.1228    5.3951 C.3       10 UNK         0.0240 
     61 CB         32.7630   32.5376    6.0048 C.3       10 UNK        -0.1982 
     62 C          33.0172   30.0420    6.4476 C.2       10 UNK         0.4970 
     63 O          32.0994   29.6474    7.1671 O.2       10 UNK        -0.4916 
     64 N          34.2676   29.5681    6.5008 N.am      11 UNK        -0.4279 
     65 CA         34.7627   28.4770    7.3564 C.3       11 UNK         0.1003 
     66 C          34.8124   28.8159    8.8783 C.2       11 UNK         0.5709 
     67 N          34.7330   30.0800    9.2776 N.am      11 UNK        -0.7358 
     68 O          34.9605   27.9261    9.7132 O.2       11 UNK        -0.4999 
     69 C69        34.0710   27.1123    7.0654 C.3       12 UNK        -0.0954 
     70 S70        34.1963   26.5906    5.3180 S.3       12 UNK        -0.2268 
     71 C71        32.4521   26.6068    4.7929 C.3       12 UNK         0.0203 
     72 H72        31.2977   31.9008   -3.5823 H         1 UNK         0.0888 
     73 H73        30.8057   30.6384   -4.7133 H         1 UNK         0.0888 
     74 H74        29.6920   31.9488   -4.3159 H         1 UNK         0.0888 
     75 H75        30.2225   28.7374   -3.6991 H         1 UNK         0.3017 
     76 H76        29.6859   28.5827   -0.8643 H         1 UNK         0.0873 
     77 H77        30.9199   26.8338   -2.4316 H         1 UNK         0.0745 
     78 H78        29.3287   26.2859   -2.8612 H         1 UNK         0.0745 
     79 H79        32.0443   26.7110   -0.2344 H         1 UNK         0.0705 
     80 H80        32.1325   25.0745   -0.8368 H         1 UNK         0.0705 
     81 H81        32.0602   27.1696    2.1400 H         1 UNK         0.1334 
     82 H82        32.2961   23.9057    4.9039 H         1 UNK         0.1417 
     83 H83        31.5633   23.1410    0.7463 H         1 UNK         0.1562 
     84 H84        32.2274   21.6342    4.1265 H         1 UNK         0.0748 
     85 H85        32.3657   21.3013    2.4193 H         1 UNK         0.0748 
     86 H86        28.5731   21.9231    4.9259 H         1 UNK         0.0940 
     87 H87        30.0297   22.8585    4.9562 H         1 UNK         0.0940 
     88 H88        29.1231   23.8485    2.6270 H         1 UNK         0.0703 
     89 H89        26.8357   22.3445    3.4918 H         1 UNK         0.3081 
     90 H90        25.1886   22.2513    1.4149 H         1 UNK         0.0719 
     91 H91        23.1945   22.8117    2.9022 H         1 UNK         0.0809 
     92 H92        24.6223   22.4262    3.8419 H         1 UNK         0.0809 
     93 H93        24.1329   24.1049    3.6440 H         1 UNK         0.0809 
     94 H94        24.7060   25.1013    0.9961 H         1 UNK         0.2990 
     95 H95        23.5187   24.6598   -2.1214 H         1 UNK         0.0690 
     96 H96        21.4056   25.9170   -1.7284 H         1 UNK         0.0788 
     97 H97        21.4252   25.4577   -0.0244 H         1 UNK         0.0788 
     98 H98        21.2128   24.2346   -1.2688 H         1 UNK         0.0788 
     99 H99        23.3692   26.9351   -0.3488 H         1 UNK         0.2993 
    100 H100       25.2521   28.6455   -1.1411 H         1 UNK         0.0949 
    101 H101       25.8012   27.2991    1.5616 H         1 UNK         0.0767 
    102 H102       25.8093   29.0368    1.2936 H         1 UNK         0.0767 
    103 H103       24.3206   28.1350    1.1040 H         1 UNK         0.0767 
    104 H104       27.7537   27.7749    0.1062 H         1 UNK         0.3013 
    105 H105       28.4076   25.9833    2.6085 H         1 UNK         0.3121 
    106 H106       29.0950   27.5246    4.9100 H         1 UNK         0.0774 
    107 H107       26.8662   28.7380    5.0333 H         1 UNK         0.0815 
    108 H108       26.1676   27.5599    3.9318 H         1 UNK         0.0815 
    109 H109       26.7028   27.0667    5.5351 H         1 UNK         0.0815 
    110 H110       28.9716   29.8502    4.2887 H         1 UNK         0.2987 
    111 H111       29.5737   31.5578    3.0366 H         1 UNK         0.0949 
    112 H112       28.3043   30.2388    0.5840 H         1 UNK         0.0806 
    113 H113       27.4095   31.1601    1.7851 H         1 UNK         0.0806 
    114 H114       28.6399   31.9473    0.8200 H         1 UNK         0.0806 
    115 H115       30.4671   31.3453    0.1176 H         1 UNK         0.3010 
    116 H116       32.4573   31.5109   -0.8446 H         1 UNK         0.0829 
    117 H117       32.1695   29.0768   -1.1651 H         1 UNK         0.0813 
    118 H118       33.8651   29.4429   -0.9370 H         1 UNK         0.0813 
    119 H119       32.9328   28.7350    0.3791 H         1 UNK         0.0813 
    120 H120       34.3316   29.6829    1.3819 H         1 UNK         0.3038 
    121 H121       35.9013   31.9752    2.2670 H         1 UNK         0.0769 
    122 H122       37.2914   30.2072    3.3382 H         1 UNK         0.0811 
    123 H123       36.9653   29.7924    1.6657 H         1 UNK         0.0811 
    124 H124       36.0800   28.9896    2.9641 H         1 UNK         0.0811 
    125 H125       33.0152   30.6130    3.3874 H         1 UNK         0.3204 
    126 H126       31.6898   30.9466    5.0709 H         1 UNK         0.0748 
    127 H127       33.7490   32.7837    6.3993 H         1 UNK         0.0771 
    128 H128       32.4976   33.2952    5.2673 H         1 UNK         0.0771 
    129 H129       32.0554   32.6266    6.8302 H         1 UNK         0.0771 
    130 H130       34.9589   30.0240    5.9165 H         1 UNK         0.2980 
    131 H131       35.8107   28.3618    7.0786 H         1 UNK         0.0545 
    132 H132       34.7780   30.2906   10.2621 H         1 UNK         0.3459 
    133 H133       34.6266   30.8218    8.6048 H         1 UNK         0.3459 
    134 H134       34.5349   26.3220    7.6577 H         1 UNK         0.0616 
    135 H135       33.0266   27.1393    7.3781 H         1 UNK         0.0616 
    136 H136       32.1695   27.6234    4.5136 H         1 UNK         0.0634 
    137 H137       31.8046   26.3221    5.6234 H         1 UNK         0.0634 
@<TRIPOS>BOND
     1    1    2 1    
     2    1   72 1    
     3    1   73 1    
     4    1   74 1    
     5    2    3 2    
     6    2    4 am   BACKBONE|DICT|INTERRES
     7    4    5 1    
     8    4   75 1    
     9    5    6 1    
    10    5   35 1    
    11    5   76 1    
    12    6    7 1    
    13    6   77 1    
    14    6   78 1    
    15    7    8 1    
    16    8    9 1    
    17    8   79 1    
    18    8   80 1    
    19    9   10 ar   
    20    9   14 ar   
    21   10   11 ar   
    22   10   81 1    
    23   11   12 ar   
    24   11   71 1    
    25   12   13 ar   
    26   12   82 1    
    27   13   14 ar   
    28   13   15 1    
    29   14   83 1    
    30   15   16 1    
    31   15   84 1    
    32   15   85 1    
    33   16   17 1    
    34   17   18 1    
    35   17   86 1    
    36   17   87 1    
    37   18   19 1    
    38   18   37 1    
    39   18   88 1    
    40   19   20 am   BACKBONE|DICT|INTERRES
    41   19   89 1    
    42   20   21 2    
    43   20   22 1    
    44   22   23 1    
    45   22   24 1    
    46   22   90 1    
    47   23   91 1    
    48   23   92 1    
    49   23   93 1    
    50   24   25 am   BACKBONE|DICT|INTERRES
    51   24   94 1    
    52   25   26 2    
    53   25   27 1    
    54   27   28 1    
    55   27   29 1    
    56   27   95 1    
    57   28   96 1    
    58   28   97 1    
    59   28   98 1    
    60   29   30 am   BACKBONE|DICT|INTERRES
    61   29   99 1    
    62   30   31 2    
    63   30   32 1    
    64   32   33 1    
    65   32   34 1    
    66   32  100 1    
    67   33  101 1    
    68   33  102 1    
    69   33  103 1    
    70   34   35 am   BACKBONE|DICT|INTERRES
    71   34  104 1    
    72   35   36 2    
    73   37   38 2    
    74   37   39 am   BACKBONE|DICT|INTERRES
    75   39   40 1    
    76   39  105 1    
    77   40   41 1    
    78   40   42 1    
    79   40  106 1    
    80   41  107 1    
    81   41  108 1    
    82   41  109 1    
    83   42   43 2    
    84   42   44 am   BACKBONE|DICT|INTERRES
    85   44   45 1    
    86   44  110 1    
    87   45   46 1    
    88   45   47 1    
    89   45  111 1    
    90   46  112 1    
    91   46  113 1    
    92   46  114 1    
    93   47   48 2    
    94   47   49 am   BACKBONE|DICT|INTERRES
    95   49   50 1    
    96   49  115 1    
    97   50   51 1    
    98   50   52 1    
    99   50  116 1    
   100   51  117 1    
   101   51  118 1    
   102   51  119 1    
   103   52   53 2    
   104   52   54 am   BACKBONE|DICT|INTERRES
   105   54   55 1    
   106   54  120 1    
   107   55   56 1    
   108   55   57 1    
   109   55  121 1    
   110   56  122 1    
   111   56  123 1    
   112   56  124 1    
   113   57   58 2    
   114   57   59 am   BACKBONE|DICT|INTERRES
   115   59   60 1    
   116   59  125 1    
   117   60   61 1    
   118   60   62 1    
   119   60  126 1    
   120   61  127 1    
   121   61  128 1    
   122   61  129 1    
   123   62   63 2    
   124   62   64 am   BACKBONE|DICT|INTERRES
   125   64   65 1    
   126   64  130 1    
   127   65   66 1    
   128   65   69 1    
   129   65  131 1    
   130   66   67 am   BACKBONE|DICT|INTERRES
   131   66   68 2    
   132   67  132 1    
   133   67  133 1    
   134   69   70 1    
   135   69  134 1    
   136   69  135 1    
   137   70   71 1    
   138   71  136 1    
   139   71  137 1    
@<TRIPOS>SUBSTRUCTURE
     1 UNK         1 GROUP             0       ****    0 ROOT    
