@<TRIPOS>MOLECULE
3R136
137   139    1
SMALL
USER_CHARGES


@<TRIPOS>ATOM
      1 CA         29.4992   20.6245   -4.0589 C.3       0 UNK        -0.1979 
      2 C          29.3465   21.9385   -3.3070 C.2       0 UNK         0.4864 
      3 O          28.9482   22.9391   -3.9040 O.2       0 UNK        -0.5359 
      4 N          29.6665   21.9416   -2.0051 N.am      1 UNK        -0.4318 
      5 CA         29.5506   23.1009   -1.1123 C.3       1 UNK         0.0824 
      6 C6         30.3108   22.8552    0.2119 C.3       12 UNK        -0.0944 
      7 S7         30.5267   24.3798    1.1802 S.3       12 UNK        -0.2672 
      8 C8         30.0370   23.8110    2.8367 C.3       12 UNK         0.0333 
      9 C9         30.0165   24.9857    3.7964 C.ar      12 UNK        -0.0807 
     10 C10        31.2163   25.5597    4.2227 C.ar      12 UNK        -0.0894 
     11 C11        31.2087   26.7198    5.0002 C.ar      12 UNK        -0.0804 
     12 C12        29.9878   27.2840    5.3825 C.ar      12 UNK        -0.0824 
     13 C13        28.7789   26.7007    4.9859 C.ar      12 UNK        -0.0762 
     14 C14        28.8018   25.5408    4.2040 C.ar      12 UNK        -0.0782 
     15 C15        27.4562   27.3485    5.3839 C.3       12 UNK         0.0230 
     16 S16        26.2649   27.4930    4.0059 S.3       12 UNK        -0.2608 
     17 C17        27.2326   28.3775    2.7324 C.3       12 UNK        -0.0989 
     18 CA         27.4318   27.5235    1.4459 C.3       5 UNK         0.0716 
     19 N          26.1687   27.1413    0.8038 N.am      5 UNK        -0.4135 
     20 C          25.2641   27.9703    0.2539 C.2       4 UNK         0.5031 
     21 O          25.3922   29.1937    0.1943 O.2       4 UNK        -0.5229 
     22 CA         23.9864   27.3451   -0.3391 C.3       4 UNK         0.0329 
     23 CB         24.1076   27.2413   -1.8686 C.3       4 UNK        -0.2001 
     24 N          23.6797   26.0222    0.2019 N.am      4 UNK        -0.4303 
     25 C          23.3004   25.7581    1.4612 C.2       3 UNK         0.5044 
     26 O          23.0131   26.6253    2.2860 O.2       3 UNK        -0.5152 
     27 CA         23.2513   24.2721    1.8743 C.3       3 UNK         0.0319 
     28 CB         21.7957   23.7951    2.0076 C.3       3 UNK        -0.2001 
     29 N          23.9640   23.3860    0.9440 N.am      3 UNK        -0.4354 
     30 C          25.2897   23.3924    0.7401 C.2       2 UNK         0.4964 
     31 O          26.0717   24.0713    1.4091 O.2       2 UNK        -0.5047 
     32 CA         25.7796   22.5312   -0.4419 C.3       2 UNK         0.0288 
     33 CB         25.1135   22.9621   -1.7686 C.3       2 UNK        -0.2113 
     34 N          27.2371   22.4922   -0.6123 N.am      2 UNK        -0.4145 
     35 C          28.0778   23.5063   -0.8803 C.2       1 UNK         0.5006 
     36 O          27.7495   24.6927   -0.9829 O.2       1 UNK        -0.5103 
     37 C          28.3790   28.1908    0.4276 C.2       5 UNK         0.5055 
     38 O          28.7183   29.3658    0.5766 O.2       5 UNK        -0.5220 
     39 N          28.7621   27.4362   -0.6136 N.am      6 UNK        -0.4450 
     40 CA         29.5956   27.9145   -1.7257 C.3       6 UNK         0.0367 
     41 CB         29.4967   26.9187   -2.8929 C.3       6 UNK        -0.1929 
     42 C          31.0723   28.1918   -1.3667 C.2       6 UNK         0.5070 
     43 O          31.7883   28.7612   -2.1924 O.2       6 UNK        -0.5237 
     44 N          31.5132   27.7818   -0.1702 N.am      7 UNK        -0.4739 
     45 CA         32.8429   28.0505    0.3869 C.3       7 UNK         0.0276 
     46 CB         33.0734   27.0866    1.5629 C.3       7 UNK        -0.1927 
     47 C          33.0329   29.5187    0.8290 C.2       7 UNK         0.5013 
     48 O          32.1216   30.3405    0.7030 O.2       7 UNK        -0.5193 
     49 N          34.2338   29.8184    1.3447 N.am      8 UNK        -0.4253 
     50 CA         34.6316   31.1227    1.8837 C.3       8 UNK         0.0242 
     51 CB         36.1174   31.0610    2.2772 C.3       8 UNK        -0.2000 
     52 C          33.7880   31.5652    3.0936 C.2       8 UNK         0.4948 
     53 O          33.2933   30.7199    3.8455 O.2       8 UNK        -0.5275 
     54 N          33.6827   32.8894    3.2783 N.am      9 UNK        -0.4246 
     55 CA         32.9752   33.5422    4.3839 C.3       9 UNK         0.0261 
     56 CB         33.0817   35.0683    4.2313 C.3       9 UNK        -0.1959 
     57 C          33.5153   33.0936    5.7515 C.2       9 UNK         0.5033 
     58 O          34.7248   33.1759    5.9834 O.2       9 UNK        -0.5390 
     59 N          32.6135   32.5739    6.5975 N.am      10 UNK        -0.4215 
     60 CA         32.8781   31.9591    7.9077 C.3       10 UNK         0.0240 
     61 CB         33.3206   33.0320    8.9261 C.3       10 UNK        -0.1982 
     62 C          33.8531   30.7602    7.8567 C.2       10 UNK         0.4970 
     63 O          34.4621   30.4344    8.8772 O.2       10 UNK        -0.4916 
     64 N          33.9922   30.1398    6.6756 N.am      11 UNK        -0.4279 
     65 CA         34.9632   29.0848    6.3507 C.3       11 UNK         0.1003 
     66 C          36.4470   29.5646    6.3715 C.2       11 UNK         0.5709 
     67 N          36.7248   30.8614    6.2764 N.am      11 UNK        -0.7358 
     68 O          37.3659   28.7515    6.4390 O.2       11 UNK        -0.4999 
     69 C69        34.7249   27.7596    7.1393 C.3       12 UNK        -0.0954 
     70 S70        33.0292   27.0669    7.0684 S.3       12 UNK        -0.2268 
     71 C71        32.5181   27.4047    5.3559 C.3       12 UNK         0.0203 
     72 H72        30.2000   20.7443   -4.8847 H         1 UNK         0.0888 
     73 H73        29.8672   19.8255   -3.4155 H         1 UNK         0.0888 
     74 H74        28.5386   20.3139   -4.4692 H         1 UNK         0.0888 
     75 H75        30.0053   21.0894   -1.5814 H         1 UNK         0.3017 
     76 H76        30.0380   23.9339   -1.6206 H         1 UNK         0.0873 
     77 H77        31.3098   22.4698    0.0014 H         1 UNK         0.0745 
     78 H78        29.8140   22.0901    0.8114 H         1 UNK         0.0745 
     79 H79        30.7376   23.0525    3.1889 H         1 UNK         0.0705 
     80 H80        29.0543   23.3387    2.7846 H         1 UNK         0.0705 
     81 H81        32.1559   25.1336    3.8978 H         1 UNK         0.1334 
     82 H82        29.9837   28.1893    5.9743 H         1 UNK         0.1417 
     83 H83        27.8717   25.0976    3.8729 H         1 UNK         0.1562 
     84 H84        27.6245   28.3449    5.7957 H         1 UNK         0.0748 
     85 H85        27.0020   26.7582    6.1805 H         1 UNK         0.0748 
     86 H86        28.1991   28.6665    3.1490 H         1 UNK         0.0940 
     87 H87        26.7220   29.3140    2.5029 H         1 UNK         0.0940 
     88 H88        27.9153   26.5896    1.7360 H         1 UNK         0.0703 
     89 H89        25.9820   26.1451    0.8007 H         1 UNK         0.3081 
     90 H90        23.1525   28.0089   -0.1012 H         1 UNK         0.0719 
     91 H91        24.9314   26.5905   -2.1656 H         1 UNK         0.0809 
     92 H92        23.1922   26.8537   -2.3161 H         1 UNK         0.0809 
     93 H93        24.2927   28.2210   -2.3115 H         1 UNK         0.0809 
     94 H94        23.8610   25.2370   -0.4046 H         1 UNK         0.2990 
     95 H95        23.7314   24.1923    2.8520 H         1 UNK         0.0690 
     96 H96        21.7456   22.7677    2.3691 H         1 UNK         0.0788 
     97 H97        21.2650   23.8445    1.0559 H         1 UNK         0.0788 
     98 H98        21.2462   24.4132    2.7192 H         1 UNK         0.0788 
     99 H99        23.3880   22.7851    0.3713 H         1 UNK         0.2993 
    100 H100       25.4757   21.5058   -0.2251 H         1 UNK         0.0949 
    101 H101       25.4748   22.3593   -2.6023 H         1 UNK         0.0767 
    102 H102       24.0305   22.8402   -1.7389 H         1 UNK         0.0767 
    103 H103       25.3195   24.0064   -2.0061 H         1 UNK         0.0767 
    104 H104       27.6465   21.5726   -0.5326 H         1 UNK         0.3013 
    105 H105       28.4187   26.4795   -0.6810 H         1 UNK         0.3121 
    106 H106       29.1736   28.8635   -2.0634 H         1 UNK         0.0774 
    107 H107       30.0063   27.3024   -3.7776 H         1 UNK         0.0815 
    108 H108       29.9561   25.9629   -2.6457 H         1 UNK         0.0815 
    109 H109       28.4599   26.7306   -3.1729 H         1 UNK         0.0815 
    110 H110       30.8511   27.3301    0.4430 H         1 UNK         0.2987 
    111 H111       33.5851   27.8419   -0.3867 H         1 UNK         0.0949 
    112 H112       34.0693   27.1931    1.9933 H         1 UNK         0.0806 
    113 H113       32.3514   27.2693    2.3575 H         1 UNK         0.0806 
    114 H114       32.9773   26.0475    1.2494 H         1 UNK         0.0806 
    115 H115       34.9168   29.0803    1.4251 H         1 UNK         0.3010 
    116 H116       34.5062   31.8590    1.0869 H         1 UNK         0.0829 
    117 H117       36.7464   30.8073    1.4237 H         1 UNK         0.0813 
    118 H118       36.4646   32.0229    2.6572 H         1 UNK         0.0813 
    119 H119       36.2963   30.3221    3.0598 H         1 UNK         0.0813 
    120 H120       34.1576   33.5033    2.6326 H         1 UNK         0.3038 
    121 H121       31.9224   33.2627    4.3054 H         1 UNK         0.0769 
    122 H122       32.5463   35.5787    5.0331 H         1 UNK         0.0811 
    123 H123       32.6497   35.4061    3.2890 H         1 UNK         0.0811 
    124 H124       34.1186   35.4057    4.2669 H         1 UNK         0.0811 
    125 H125       31.6503   32.5338    6.2919 H         1 UNK         0.3204 
    126 H126       31.9258   31.5516    8.2502 H         1 UNK         0.0748 
    127 H127       33.3797   32.6184    9.9336 H         1 UNK         0.0771 
    128 H128       34.3031   33.4381    8.6833 H         1 UNK         0.0771 
    129 H129       32.6143   33.8615    8.9608 H         1 UNK         0.0771 
    130 H130       33.4847   30.4969    5.8732 H         1 UNK         0.2980 
    131 H131       34.7996   28.8660    5.2964 H         1 UNK         0.0545 
    132 H132       37.6874   31.1575    6.2810 H         1 UNK         0.3459 
    133 H133       35.9858   31.5530    6.2103 H         1 UNK         0.3459 
    134 H134       35.3948   26.9833    6.7661 H         1 UNK         0.0616 
    135 H135       34.9855   27.8935    8.1900 H         1 UNK         0.0616 
    136 H136       32.4013   28.4780    5.2072 H         1 UNK         0.0634 
    137 H137       33.3095   27.0799    4.6789 H         1 UNK         0.0634 
@<TRIPOS>BOND
     1    1    2 1    
     2    1   72 1    
     3    1   73 1    
     4    1   74 1    
     5    2    3 2    
     6    2    4 am   BACKBONE|DICT|INTERRES
     7    4    5 1    
     8    4   75 1    
     9    5    6 1    
    10    5   35 1    
    11    5   76 1    
    12    6    7 1    
    13    6   77 1    
    14    6   78 1    
    15    7    8 1    
    16    8    9 1    
    17    8   79 1    
    18    8   80 1    
    19    9   10 ar   
    20    9   14 ar   
    21   10   11 ar   
    22   10   81 1    
    23   11   12 ar   
    24   11   71 1    
    25   12   13 ar   
    26   12   82 1    
    27   13   14 ar   
    28   13   15 1    
    29   14   83 1    
    30   15   16 1    
    31   15   84 1    
    32   15   85 1    
    33   16   17 1    
    34   17   18 1    
    35   17   86 1    
    36   17   87 1    
    37   18   19 1    
    38   18   37 1    
    39   18   88 1    
    40   19   20 am   BACKBONE|DICT|INTERRES
    41   19   89 1    
    42   20   21 2    
    43   20   22 1    
    44   22   23 1    
    45   22   24 1    
    46   22   90 1    
    47   23   91 1    
    48   23   92 1    
    49   23   93 1    
    50   24   25 am   BACKBONE|DICT|INTERRES
    51   24   94 1    
    52   25   26 2    
    53   25   27 1    
    54   27   28 1    
    55   27   29 1    
    56   27   95 1    
    57   28   96 1    
    58   28   97 1    
    59   28   98 1    
    60   29   30 am   BACKBONE|DICT|INTERRES
    61   29   99 1    
    62   30   31 2    
    63   30   32 1    
    64   32   33 1    
    65   32   34 1    
    66   32  100 1    
    67   33  101 1    
    68   33  102 1    
    69   33  103 1    
    70   34   35 am   BACKBONE|DICT|INTERRES
    71   34  104 1    
    72   35   36 2    
    73   37   38 2    
    74   37   39 am   BACKBONE|DICT|INTERRES
    75   39   40 1    
    76   39  105 1    
    77   40   41 1    
    78   40   42 1    
    79   40  106 1    
    80   41  107 1    
    81   41  108 1    
    82   41  109 1    
    83   42   43 2    
    84   42   44 am   BACKBONE|DICT|INTERRES
    85   44   45 1    
    86   44  110 1    
    87   45   46 1    
    88   45   47 1    
    89   45  111 1    
    90   46  112 1    
    91   46  113 1    
    92   46  114 1    
    93   47   48 2    
    94   47   49 am   BACKBONE|DICT|INTERRES
    95   49   50 1    
    96   49  115 1    
    97   50   51 1    
    98   50   52 1    
    99   50  116 1    
   100   51  117 1    
   101   51  118 1    
   102   51  119 1    
   103   52   53 2    
   104   52   54 am   BACKBONE|DICT|INTERRES
   105   54   55 1    
   106   54  120 1    
   107   55   56 1    
   108   55   57 1    
   109   55  121 1    
   110   56  122 1    
   111   56  123 1    
   112   56  124 1    
   113   57   58 2    
   114   57   59 am   BACKBONE|DICT|INTERRES
   115   59   60 1    
   116   59  125 1    
   117   60   61 1    
   118   60   62 1    
   119   60  126 1    
   120   61  127 1    
   121   61  128 1    
   122   61  129 1    
   123   62   63 2    
   124   62   64 am   BACKBONE|DICT|INTERRES
   125   64   65 1    
   126   64  130 1    
   127   65   66 1    
   128   65   69 1    
   129   65  131 1    
   130   66   67 am   BACKBONE|DICT|INTERRES
   131   66   68 2    
   132   67  132 1    
   133   67  133 1    
   134   69   70 1    
   135   69  134 1    
   136   69  135 1    
   137   70   71 1    
   138   71  136 1    
   139   71  137 1    
@<TRIPOS>SUBSTRUCTURE
     1 UNK         1 GROUP             0       ****    0 ROOT    
