@<TRIPOS>MOLECULE
3R136
137   139    1
SMALL
USER_CHARGES


@<TRIPOS>ATOM
      1 CA         24.9934   21.3165   -0.8101 C.3       0 UNK        -0.1979 
      2 C          26.3495   21.6609   -0.2127 C.2       0 UNK         0.4864 
      3 O          26.5088   21.6132    1.0086 O.2       0 UNK        -0.5359 
      4 N          27.3205   22.0129   -1.0691 N.am      1 UNK        -0.4318 
      5 CA         28.7029   22.3775   -0.7330 C.3       1 UNK         0.0824 
      6 C6         29.5528   21.1474   -0.2914 C.3       12 UNK        -0.0944 
      7 S7         31.2599   21.2123   -0.9305 S.3       12 UNK        -0.2672 
      8 C8         32.2680   21.5534    0.5554 C.3       12 UNK         0.0333 
      9 C9         32.5118   23.0365    0.8366 C.ar      12 UNK        -0.0807 
     10 C10        32.6170   23.4754    2.1611 C.ar      12 UNK        -0.0894 
     11 C11        32.8881   24.8161    2.4550 C.ar      12 UNK        -0.0804 
     12 C12        33.0993   25.7133    1.4057 C.ar      12 UNK        -0.0824 
     13 C13        32.9647   25.3033    0.0766 C.ar      12 UNK        -0.0762 
     14 C14        32.6862   23.9617   -0.2007 C.ar      12 UNK        -0.0782 
     15 C15        33.0860   26.3118   -1.0619 C.3       12 UNK         0.0230 
     16 S16        32.0652   27.8088   -0.8157 S.3       12 UNK        -0.2608 
     17 C17        30.4737   27.0955   -0.2793 C.3       12 UNK        -0.0989 
     18 CA         29.3471   28.1364   -0.0918 C.3       5 UNK         0.0716 
     19 N          28.0408   27.4776   -0.1188 N.am      5 UNK        -0.4135 
     20 C          26.8573   28.0936   -0.2375 C.2       4 UNK         0.5031 
     21 O          26.7144   29.3163   -0.2128 O.2       4 UNK        -0.5229 
     22 CA         25.6308   27.1885   -0.4306 C.3       4 UNK         0.0329 
     23 CB         25.5946   26.6241   -1.8609 C.3       4 UNK        -0.2001 
     24 N          25.6458   26.0813    0.5243 N.am      4 UNK        -0.4303 
     25 C          24.9323   26.0462    1.6579 C.2       3 UNK         0.5044 
     26 O          24.0855   26.8863    1.9648 O.2       3 UNK        -0.5152 
     27 CA         25.2200   24.8877    2.6335 C.3       3 UNK         0.0319 
     28 CB         24.1948   23.7584    2.4496 C.3       3 UNK        -0.2001 
     29 N          26.5781   24.3390    2.5341 N.am      3 UNK        -0.4354 
     30 C          27.6961   25.0462    2.7646 C.2       2 UNK         0.4964 
     31 O          27.6976   26.2411    3.0457 O.2       2 UNK        -0.5047 
     32 CA         29.0437   24.3275    2.6010 C.3       2 UNK         0.0288 
     33 CB         29.4186   23.6346    3.9213 C.3       2 UNK        -0.2113 
     34 N          29.0672   23.3519    1.5086 N.am      2 UNK        -0.4145 
     35 C          28.7177   23.5812    0.2334 C.2       1 UNK         0.5006 
     36 O          28.3377   24.6788   -0.1844 O.2       1 UNK        -0.5103 
     37 C          29.5712   29.0334    1.1465 C.2       5 UNK         0.5055 
     38 O          30.2496   30.0544    1.0185 O.2       5 UNK        -0.5220 
     39 N          28.9719   28.6994    2.3029 N.am      6 UNK        -0.4450 
     40 CA         29.0857   29.4595    3.5595 C.3       6 UNK         0.0367 
     41 CB         28.4334   28.6788    4.7119 C.3       6 UNK        -0.1929 
     42 C          28.5360   30.8999    3.5121 C.2       6 UNK         0.5070 
     43 O          28.7791   31.6682    4.4429 O.2       6 UNK        -0.5237 
     44 N          27.8256   31.2618    2.4344 N.am      7 UNK        -0.4739 
     45 CA         27.4557   32.6414    2.1138 C.3       7 UNK         0.0276 
     46 CB         26.4244   32.6293    0.9743 C.3       7 UNK        -0.1927 
     47 C          28.6654   33.5223    1.7364 C.2       7 UNK         0.5013 
     48 O          28.5579   34.7456    1.8353 O.2       7 UNK        -0.5193 
     49 N          29.7762   32.9026    1.3100 N.am      8 UNK        -0.4253 
     50 CA         31.0187   33.5718    0.9235 C.3       8 UNK         0.0242 
     51 CB         31.2379   33.4013   -0.5895 C.3       8 UNK        -0.2000 
     52 C          32.2271   33.0375    1.7074 C.2       8 UNK         0.4948 
     53 O          33.0472   33.8390    2.1580 O.2       8 UNK        -0.5275 
     54 N          32.3403   31.7094    1.8407 N.am      9 UNK        -0.4246 
     55 CA         33.4512   31.0372    2.5151 C.3       9 UNK         0.0261 
     56 CB         33.5546   29.5970    1.9916 C.3       9 UNK        -0.1959 
     57 C          33.2757   31.0275    4.0391 C.2       9 UNK         0.5033 
     58 O          32.1501   30.9563    4.5353 O.2       9 UNK        -0.5390 
     59 N          34.4014   31.0257    4.7611 N.am      10 UNK        -0.4215 
     60 CA         34.4569   30.9037    6.2185 C.3       10 UNK         0.0240 
     61 CB         35.7106   31.6372    6.7334 C.3       10 UNK        -0.1982 
     62 C          34.4140   29.4237    6.6454 C.2       10 UNK         0.4970 
     63 O          35.3805   28.9242    7.2253 O.2       10 UNK        -0.4916 
     64 N          33.3083   28.7401    6.3238 N.am      11 UNK        -0.4279 
     65 CA         33.0452   27.3452    6.7112 C.3       11 UNK         0.1003 
     66 C          32.9265   27.1647    8.2505 C.2       11 UNK         0.5709 
     67 N          33.3704   26.0322    8.7792 N.am      11 UNK        -0.7358 
     68 O          32.3999   28.0204    8.9602 O.2       11 UNK        -0.4999 
     69 C69        31.7888   26.7697    6.0073 C.3       12 UNK        -0.0954 
     70 S70        31.9025   26.7625    4.1891 S.3       12 UNK        -0.2268 
     71 C71        32.9477   25.2930    3.9020 C.3       12 UNK         0.0203 
     72 H72        24.5905   20.4214   -0.3368 H         1 UNK         0.0888 
     73 H73        24.2907   22.1332   -0.6505 H         1 UNK         0.0888 
     74 H74        25.0593   21.1285   -1.8816 H         1 UNK         0.0888 
     75 H75        27.1000   22.0617   -2.0542 H         1 UNK         0.3017 
     76 H76        29.1183   22.7558   -1.6686 H         1 UNK         0.0873 
     77 H77        29.1249   20.2435   -0.7284 H         1 UNK         0.0745 
     78 H78        29.5340   20.9560    0.7815 H         1 UNK         0.0745 
     79 H79        33.2407   21.0802    0.4160 H         1 UNK         0.0705 
     80 H80        31.8163   21.0635    1.4191 H         1 UNK         0.0705 
     81 H81        32.4913   22.7670    2.9680 H         1 UNK         0.1334 
     82 H82        33.3176   26.7487    1.6242 H         1 UNK         0.1417 
     83 H83        32.6078   23.6384   -1.2294 H         1 UNK         0.1562 
     84 H84        32.7981   25.8558   -2.0104 H         1 UNK         0.0748 
     85 H85        34.1304   26.6084   -1.1656 H         1 UNK         0.0748 
     86 H86        30.6071   26.5240    0.6394 H         1 UNK         0.0940 
     87 H87        30.1896   26.3718   -1.0450 H         1 UNK         0.0940 
     88 H88        29.3648   28.7998   -0.9594 H         1 UNK         0.0703 
     89 H89        28.0686   26.4606   -0.1487 H         1 UNK         0.3081 
     90 H90        24.7381   27.8017   -0.2897 H         1 UNK         0.0719 
     91 H91        24.6931   26.0347   -2.0284 H         1 UNK         0.0809 
     92 H92        25.5968   27.4285   -2.5978 H         1 UNK         0.0809 
     93 H93        26.4538   25.9854   -2.0708 H         1 UNK         0.0809 
     94 H94        26.3387   25.3585    0.3741 H         1 UNK         0.2990 
     95 H95        25.1071   25.2849    3.6445 H         1 UNK         0.0690 
     96 H96        23.1780   24.1278    2.5908 H         1 UNK         0.0788 
     97 H97        24.3513   22.9563    3.1711 H         1 UNK         0.0788 
     98 H98        24.2477   23.3266    1.4509 H         1 UNK         0.0788 
     99 H99        26.6611   23.3675    2.2522 H         1 UNK         0.2993 
    100 H100       29.8002   25.0829    2.3809 H         1 UNK         0.0949 
    101 H101       28.6828   22.8810    4.2054 H         1 UNK         0.0767 
    102 H102       30.3882   23.1449    3.8621 H         1 UNK         0.0767 
    103 H103       29.4761   24.3594    4.7350 H         1 UNK         0.0767 
    104 H104       29.3159   22.4083    1.7632 H         1 UNK         0.3013 
    105 H105       28.4300   27.8396    2.3565 H         1 UNK         0.3121 
    106 H106       30.1508   29.5394    3.7787 H         1 UNK         0.0774 
    107 H107       27.3695   28.5166    4.5361 H         1 UNK         0.0815 
    108 H108       28.5319   29.2152    5.6565 H         1 UNK         0.0815 
    109 H109       28.9069   27.7071    4.8488 H         1 UNK         0.0815 
    110 H110       27.6458   30.5660    1.7219 H         1 UNK         0.2987 
    111 H111       26.9901   33.0848    2.9968 H         1 UNK         0.0949 
    112 H112       26.8354   32.1908    0.0638 H         1 UNK         0.0806 
    113 H113       25.5362   32.0594    1.2479 H         1 UNK         0.0806 
    114 H114       26.0980   33.6414    0.7312 H         1 UNK         0.0806 
    115 H115       29.7810   31.8866    1.2744 H         1 UNK         0.3010 
    116 H116       30.9529   34.6412    1.1353 H         1 UNK         0.0829 
    117 H117       30.4281   33.8577   -1.1589 H         1 UNK         0.0813 
    118 H118       32.1664   33.8779   -0.9068 H         1 UNK         0.0813 
    119 H119       31.2949   32.3495   -0.8738 H         1 UNK         0.0813 
    120 H120       31.6044   31.1034    1.4812 H         1 UNK         0.3038 
    121 H121       34.3783   31.5604    2.2704 H         1 UNK         0.0769 
    122 H122       32.6320   29.0418    2.1659 H         1 UNK         0.0811 
    123 H123       34.3613   29.0513    2.4827 H         1 UNK         0.0811 
    124 H124       33.7587   29.5819    0.9213 H         1 UNK         0.0811 
    125 H125       35.2889   31.0368    4.2786 H         1 UNK         0.3204 
    126 H126       33.5856   31.3939    6.6588 H         1 UNK         0.0748 
    127 H127       36.6284   31.2048    6.3327 H         1 UNK         0.0771 
    128 H128       35.6910   32.6927    6.4613 H         1 UNK         0.0771 
    129 H129       35.7732   31.5866    7.8213 H         1 UNK         0.0771 
    130 H130       32.5697   29.2229    5.8270 H         1 UNK         0.2980 
    131 H131       33.9078   26.7625    6.3826 H         1 UNK         0.0545 
    132 H132       33.2875   25.8918    9.7739 H         1 UNK         0.3459 
    133 H133       33.7941   25.3186    8.2071 H         1 UNK         0.3459 
    134 H134       31.5907   25.7484    6.3380 H         1 UNK         0.0616 
    135 H135       30.9066   27.3495    6.2838 H         1 UNK         0.0616 
    136 H136       32.6304   24.4950    4.5746 H         1 UNK         0.0634 
    137 H137       33.9804   25.5309    4.1592 H         1 UNK         0.0634 
@<TRIPOS>BOND
     1    1    2 1    
     2    1   72 1    
     3    1   73 1    
     4    1   74 1    
     5    2    3 2    
     6    2    4 am   BACKBONE|DICT|INTERRES
     7    4    5 1    
     8    4   75 1    
     9    5    6 1    
    10    5   35 1    
    11    5   76 1    
    12    6    7 1    
    13    6   77 1    
    14    6   78 1    
    15    7    8 1    
    16    8    9 1    
    17    8   79 1    
    18    8   80 1    
    19    9   10 ar   
    20    9   14 ar   
    21   10   11 ar   
    22   10   81 1    
    23   11   12 ar   
    24   11   71 1    
    25   12   13 ar   
    26   12   82 1    
    27   13   14 ar   
    28   13   15 1    
    29   14   83 1    
    30   15   16 1    
    31   15   84 1    
    32   15   85 1    
    33   16   17 1    
    34   17   18 1    
    35   17   86 1    
    36   17   87 1    
    37   18   19 1    
    38   18   37 1    
    39   18   88 1    
    40   19   20 am   BACKBONE|DICT|INTERRES
    41   19   89 1    
    42   20   21 2    
    43   20   22 1    
    44   22   23 1    
    45   22   24 1    
    46   22   90 1    
    47   23   91 1    
    48   23   92 1    
    49   23   93 1    
    50   24   25 am   BACKBONE|DICT|INTERRES
    51   24   94 1    
    52   25   26 2    
    53   25   27 1    
    54   27   28 1    
    55   27   29 1    
    56   27   95 1    
    57   28   96 1    
    58   28   97 1    
    59   28   98 1    
    60   29   30 am   BACKBONE|DICT|INTERRES
    61   29   99 1    
    62   30   31 2    
    63   30   32 1    
    64   32   33 1    
    65   32   34 1    
    66   32  100 1    
    67   33  101 1    
    68   33  102 1    
    69   33  103 1    
    70   34   35 am   BACKBONE|DICT|INTERRES
    71   34  104 1    
    72   35   36 2    
    73   37   38 2    
    74   37   39 am   BACKBONE|DICT|INTERRES
    75   39   40 1    
    76   39  105 1    
    77   40   41 1    
    78   40   42 1    
    79   40  106 1    
    80   41  107 1    
    81   41  108 1    
    82   41  109 1    
    83   42   43 2    
    84   42   44 am   BACKBONE|DICT|INTERRES
    85   44   45 1    
    86   44  110 1    
    87   45   46 1    
    88   45   47 1    
    89   45  111 1    
    90   46  112 1    
    91   46  113 1    
    92   46  114 1    
    93   47   48 2    
    94   47   49 am   BACKBONE|DICT|INTERRES
    95   49   50 1    
    96   49  115 1    
    97   50   51 1    
    98   50   52 1    
    99   50  116 1    
   100   51  117 1    
   101   51  118 1    
   102   51  119 1    
   103   52   53 2    
   104   52   54 am   BACKBONE|DICT|INTERRES
   105   54   55 1    
   106   54  120 1    
   107   55   56 1    
   108   55   57 1    
   109   55  121 1    
   110   56  122 1    
   111   56  123 1    
   112   56  124 1    
   113   57   58 2    
   114   57   59 am   BACKBONE|DICT|INTERRES
   115   59   60 1    
   116   59  125 1    
   117   60   61 1    
   118   60   62 1    
   119   60  126 1    
   120   61  127 1    
   121   61  128 1    
   122   61  129 1    
   123   62   63 2    
   124   62   64 am   BACKBONE|DICT|INTERRES
   125   64   65 1    
   126   64  130 1    
   127   65   66 1    
   128   65   69 1    
   129   65  131 1    
   130   66   67 am   BACKBONE|DICT|INTERRES
   131   66   68 2    
   132   67  132 1    
   133   67  133 1    
   134   69   70 1    
   135   69  134 1    
   136   69  135 1    
   137   70   71 1    
   138   71  136 1    
   139   71  137 1    
@<TRIPOS>SUBSTRUCTURE
     1 UNK         1 GROUP             0       ****    0 ROOT    
