@<TRIPOS>MOLECULE
3R136
137   139    1
SMALL
USER_CHARGES


@<TRIPOS>ATOM
      1 CA         30.8866   18.6577    3.2004 C.3       0 UNK        -0.1979 
      2 C          29.8668   19.5246    2.4767 C.2       0 UNK         0.4864 
      3 O          28.7368   19.0855    2.2591 O.2       0 UNK        -0.5359 
      4 N          30.2583   20.7505    2.1025 N.am      1 UNK        -0.4318 
      5 CA         29.4164   21.7219    1.3890 C.3       1 UNK         0.0824 
      6 C6         30.2522   22.8738    0.7808 C.3       12 UNK        -0.0944 
      7 S7         31.4545   22.2645   -0.4469 S.3       12 UNK        -0.2672 
      8 C8         32.9173   23.2798   -0.0604 C.3       12 UNK         0.0333 
      9 C9         32.6822   24.7650   -0.3105 C.ar      12 UNK        -0.0807 
     10 C10        32.8857   25.6942    0.7165 C.ar      12 UNK        -0.0894 
     11 C11        32.6996   27.0602    0.4822 C.ar      12 UNK        -0.0804 
     12 C12        32.3224   27.4926   -0.7911 C.ar      12 UNK        -0.0824 
     13 C13        32.0614   26.5729   -1.8097 C.ar      12 UNK        -0.0762 
     14 C14        32.2653   25.2116   -1.5701 C.ar      12 UNK        -0.0782 
     15 C15        31.5301   27.0498   -3.1553 C.3       12 UNK         0.0230 
     16 S16        29.7040   27.0970   -3.1842 S.3       12 UNK        -0.2608 
     17 C17        29.3766   28.4522   -2.0085 C.3       12 UNK        -0.0989 
     18 CA         27.8739   28.7799   -1.8036 C.3       5 UNK         0.0716 
     19 N          27.0482   27.6469   -1.3585 N.am      5 UNK        -0.4135 
     20 C          27.2157   26.8892   -0.2663 C.2       4 UNK         0.5031 
     21 O          28.1537   27.0157    0.5230 O.2       4 UNK        -0.5229 
     22 CA         26.1514   25.8042   -0.0254 C.3       4 UNK         0.0329 
     23 CB         26.5067   24.5240   -0.7973 C.3       4 UNK        -0.2001 
     24 N          25.9848   25.4961    1.4007 N.am      4 UNK        -0.4303 
     25 C          25.4811   26.3614    2.2968 C.2       3 UNK         0.5044 
     26 O          25.0644   27.4797    1.9878 O.2       3 UNK        -0.5152 
     27 CA         25.3679   25.9235    3.7716 C.3       3 UNK         0.0319 
     28 CB         23.8991   25.9438    4.2316 C.3       3 UNK        -0.2001 
     29 N          25.9187   24.5964    4.0507 N.am      3 UNK        -0.4354 
     30 C          27.2046   24.3327    4.3142 C.2       2 UNK         0.4964 
     31 O          28.0935   25.1825    4.3303 O.2       2 UNK        -0.5047 
     32 CA         27.5783   22.8658    4.6056 C.3       2 UNK         0.0288 
     33 CB         26.3683   21.9184    4.7859 C.3       2 UNK        -0.2113 
     34 N          28.4949   22.3394    3.5898 N.am      2 UNK        -0.4145 
     35 C          28.2811   22.2912    2.2648 C.2       1 UNK         0.5006 
     36 O          27.2410   22.6735    1.7251 O.2       1 UNK        -0.5103 
     37 C          27.7261   30.0126   -0.8863 C.2       5 UNK         0.5055 
     38 O          27.3346   31.0755   -1.3699 O.2       5 UNK        -0.5220 
     39 N          28.0708   29.8506    0.4012 N.am      6 UNK        -0.4450 
     40 CA         28.1595   30.8796    1.4470 C.3       6 UNK         0.0367 
     41 CB         26.7587   31.4077    1.8179 C.3       6 UNK        -0.1929 
     42 C          29.1611   32.0023    1.0993 C.2       6 UNK         0.5070 
     43 O          28.9122   33.1736    1.3891 O.2       6 UNK        -0.5237 
     44 N          30.2725   31.6193    0.4571 N.am      7 UNK        -0.4739 
     45 CA         31.2996   32.5233   -0.0648 C.3       7 UNK         0.0276 
     46 CB         32.0231   31.8218   -1.2266 C.3       7 UNK        -0.1927 
     47 C          32.3192   32.9864    0.9905 C.2       7 UNK         0.5013 
     48 O          33.0171   33.9725    0.7490 O.2       7 UNK        -0.5193 
     49 N          32.4142   32.2726    2.1174 N.am      8 UNK        -0.4253 
     50 CA         33.3590   32.5258    3.2019 C.3       8 UNK         0.0242 
     51 CB         34.6919   31.8171    2.8941 C.3       8 UNK        -0.2000 
     52 C          32.7615   32.0138    4.5146 C.2       8 UNK         0.4948 
     53 O          31.8067   31.2346    4.4885 O.2       8 UNK        -0.5275 
     54 N          33.3658   32.4051    5.6448 N.am      9 UNK        -0.4246 
     55 CA         32.9594   32.0168    7.0048 C.3       9 UNK         0.0261 
     56 CB         33.8475   32.7501    8.0235 C.3       9 UNK        -0.1959 
     57 C          32.9671   30.4983    7.2804 C.2       9 UNK         0.5033 
     58 O          32.2938   30.0515    8.2098 O.2       9 UNK        -0.5390 
     59 N          33.7038   29.7343    6.4624 N.am      10 UNK        -0.4215 
     60 CA         33.7252   28.2710    6.4561 C.3       10 UNK         0.0240 
     61 CB         34.9242   27.7989    5.6159 C.3       10 UNK        -0.1982 
     62 C          32.4239   27.6241    5.9383 C.2       10 UNK         0.4970 
     63 O          32.2182   26.4384    6.2011 O.2       10 UNK        -0.4916 
     64 N          31.5899   28.3804    5.2126 N.am      11 UNK        -0.4279 
     65 CA         30.3404   27.9059    4.5975 C.3       11 UNK         0.1003 
     66 C          29.1341   28.8695    4.7863 C.2       11 UNK         0.5709 
     67 N          29.3332   30.1513    5.0653 N.am      11 UNK        -0.7358 
     68 O          27.9853   28.4445    4.7100 O.2       11 UNK        -0.4999 
     69 C69        30.5503   27.4921    3.1160 C.3       12 UNK        -0.0954 
     70 S70        31.2833   28.8114    2.0827 S.3       12 UNK        -0.2268 
     71 C71        32.8787   28.0785    1.5987 C.3       12 UNK         0.0203 
     72 H72        31.0608   17.7384    2.6418 H         1 UNK         0.0888 
     73 H73        31.8429   19.1666    3.3212 H         1 UNK         0.0888 
     74 H74        30.5171   18.3906    4.1901 H         1 UNK         0.0888 
     75 H75        31.2087   21.0433    2.2793 H         1 UNK         0.3017 
     76 H76        28.9306   21.1916    0.5666 H         1 UNK         0.0873 
     77 H77        29.6134   23.6012    0.2773 H         1 UNK         0.0745 
     78 H78        30.7719   23.4245    1.5675 H         1 UNK         0.0745 
     79 H79        33.2144   23.0971    0.9735 H         1 UNK         0.0705 
     80 H80        33.7493   22.9469   -0.6823 H         1 UNK         0.0705 
     81 H81        33.1862   25.3560    1.6987 H         1 UNK         0.1334 
     82 H82        32.1769   28.5479   -0.9716 H         1 UNK         0.1417 
     83 H83        32.0786   24.4944   -2.3580 H         1 UNK         0.1562 
     84 H84        31.8779   26.3854   -3.9478 H         1 UNK         0.0748 
     85 H85        31.9259   28.0385   -3.3928 H         1 UNK         0.0748 
     86 H86        29.9115   29.3353   -2.3639 H         1 UNK         0.0940 
     87 H87        29.8223   28.1880   -1.0510 H         1 UNK         0.0940 
     88 H88        27.4706   29.0669   -2.7763 H         1 UNK         0.0703 
     89 H89        26.2409   27.4640   -1.9374 H         1 UNK         0.3081 
     90 H90        25.1920   26.1719   -0.3957 H         1 UNK         0.0719 
     91 H91        27.4862   24.1426   -0.5113 H         1 UNK         0.0809 
     92 H92        25.7750   23.7350   -0.6222 H         1 UNK         0.0809 
     93 H93        26.5350   24.7089   -1.8718 H         1 UNK         0.0809 
     94 H94        26.3405   24.6016    1.7190 H         1 UNK         0.2990 
     95 H95        25.9143   26.6610    4.3630 H         1 UNK         0.0690 
     96 H96        23.8106   25.6927    5.2889 H         1 UNK         0.0788 
     97 H97        23.2890   25.2390    3.6653 H         1 UNK         0.0788 
     98 H98        23.4598   26.9337    4.1004 H         1 UNK         0.0788 
     99 H99        25.2703   23.8226    4.0255 H         1 UNK         0.2993 
    100 H100       28.1295   22.8782    5.5472 H         1 UNK         0.0949 
    101 H101       26.6994   20.9174    5.0634 H         1 UNK         0.0767 
    102 H102       25.7089   22.2656    5.5826 H         1 UNK         0.0767 
    103 H103       25.7745   21.8223    3.8761 H         1 UNK         0.0767 
    104 H104       29.3927   22.0258    3.9295 H         1 UNK         0.3013 
    105 H105       28.3261   28.9051    0.6835 H         1 UNK         0.3121 
    106 H106       28.5633   30.3798    2.3265 H         1 UNK         0.0774 
    107 H107       26.8088   32.0754    2.6787 H         1 UNK         0.0815 
    108 H108       26.3057   31.9659    0.9981 H         1 UNK         0.0815 
    109 H109       26.0869   30.5905    2.0816 H         1 UNK         0.0815 
    110 H110       30.4106   30.6316    0.2988 H         1 UNK         0.2987 
    111 H111       30.8100   33.4174   -0.4576 H         1 UNK         0.0949 
    112 H112       32.5561   30.9317   -0.8909 H         1 UNK         0.0806 
    113 H113       31.3257   31.5255   -2.0103 H         1 UNK         0.0806 
    114 H114       32.7580   32.4853   -1.6848 H         1 UNK         0.0806 
    115 H115       31.7676   31.5115    2.2865 H         1 UNK         0.3010 
    116 H116       33.5231   33.6011    3.3009 H         1 UNK         0.0829 
    117 H117       35.1227   32.1733    1.9581 H         1 UNK         0.0813 
    118 H118       35.4308   32.0001    3.6750 H         1 UNK         0.0813 
    119 H119       34.5625   30.7372    2.8101 H         1 UNK         0.0813 
    120 H120       34.1527   33.0355    5.5772 H         1 UNK         0.3038 
    121 H121       31.9305   32.3559    7.1429 H         1 UNK         0.0769 
    122 H122       34.8976   32.4757    7.9150 H         1 UNK         0.0811 
    123 H123       33.5521   32.5083    9.0457 H         1 UNK         0.0811 
    124 H124       33.7684   33.8319    7.9150 H         1 UNK         0.0811 
    125 H125       34.2330   30.1981    5.7394 H         1 UNK         0.3204 
    126 H126       33.8702   27.9306    7.4837 H         1 UNK         0.0748 
    127 H127       35.8645   28.1778    6.0171 H         1 UNK         0.0771 
    128 H128       34.9934   26.7101    5.6097 H         1 UNK         0.0771 
    129 H129       34.8443   28.1258    4.5783 H         1 UNK         0.0771 
    130 H130       31.8158   29.3530    5.0346 H         1 UNK         0.2980 
    131 H131       30.0285   27.0044    5.1276 H         1 UNK         0.0545 
    132 H132       28.5348   30.7456    5.2134 H         1 UNK         0.3459 
    133 H133       30.2626   30.5606    5.0077 H         1 UNK         0.3459 
    134 H134       29.6049   27.1814    2.6703 H         1 UNK         0.0616 
    135 H135       31.1887   26.6090    3.0770 H         1 UNK         0.0616 
    136 H136       33.5398   28.8749    1.2545 H         1 UNK         0.0634 
    137 H137       33.3586   27.6336    2.4717 H         1 UNK         0.0634 
@<TRIPOS>BOND
     1    1    2 1    
     2    1   72 1    
     3    1   73 1    
     4    1   74 1    
     5    2    3 2    
     6    2    4 am   BACKBONE|DICT|INTERRES
     7    4    5 1    
     8    4   75 1    
     9    5    6 1    
    10    5   35 1    
    11    5   76 1    
    12    6    7 1    
    13    6   77 1    
    14    6   78 1    
    15    7    8 1    
    16    8    9 1    
    17    8   79 1    
    18    8   80 1    
    19    9   10 ar   
    20    9   14 ar   
    21   10   11 ar   
    22   10   81 1    
    23   11   12 ar   
    24   11   71 1    
    25   12   13 ar   
    26   12   82 1    
    27   13   14 ar   
    28   13   15 1    
    29   14   83 1    
    30   15   16 1    
    31   15   84 1    
    32   15   85 1    
    33   16   17 1    
    34   17   18 1    
    35   17   86 1    
    36   17   87 1    
    37   18   19 1    
    38   18   37 1    
    39   18   88 1    
    40   19   20 am   BACKBONE|DICT|INTERRES
    41   19   89 1    
    42   20   21 2    
    43   20   22 1    
    44   22   23 1    
    45   22   24 1    
    46   22   90 1    
    47   23   91 1    
    48   23   92 1    
    49   23   93 1    
    50   24   25 am   BACKBONE|DICT|INTERRES
    51   24   94 1    
    52   25   26 2    
    53   25   27 1    
    54   27   28 1    
    55   27   29 1    
    56   27   95 1    
    57   28   96 1    
    58   28   97 1    
    59   28   98 1    
    60   29   30 am   BACKBONE|DICT|INTERRES
    61   29   99 1    
    62   30   31 2    
    63   30   32 1    
    64   32   33 1    
    65   32   34 1    
    66   32  100 1    
    67   33  101 1    
    68   33  102 1    
    69   33  103 1    
    70   34   35 am   BACKBONE|DICT|INTERRES
    71   34  104 1    
    72   35   36 2    
    73   37   38 2    
    74   37   39 am   BACKBONE|DICT|INTERRES
    75   39   40 1    
    76   39  105 1    
    77   40   41 1    
    78   40   42 1    
    79   40  106 1    
    80   41  107 1    
    81   41  108 1    
    82   41  109 1    
    83   42   43 2    
    84   42   44 am   BACKBONE|DICT|INTERRES
    85   44   45 1    
    86   44  110 1    
    87   45   46 1    
    88   45   47 1    
    89   45  111 1    
    90   46  112 1    
    91   46  113 1    
    92   46  114 1    
    93   47   48 2    
    94   47   49 am   BACKBONE|DICT|INTERRES
    95   49   50 1    
    96   49  115 1    
    97   50   51 1    
    98   50   52 1    
    99   50  116 1    
   100   51  117 1    
   101   51  118 1    
   102   51  119 1    
   103   52   53 2    
   104   52   54 am   BACKBONE|DICT|INTERRES
   105   54   55 1    
   106   54  120 1    
   107   55   56 1    
   108   55   57 1    
   109   55  121 1    
   110   56  122 1    
   111   56  123 1    
   112   56  124 1    
   113   57   58 2    
   114   57   59 am   BACKBONE|DICT|INTERRES
   115   59   60 1    
   116   59  125 1    
   117   60   61 1    
   118   60   62 1    
   119   60  126 1    
   120   61  127 1    
   121   61  128 1    
   122   61  129 1    
   123   62   63 2    
   124   62   64 am   BACKBONE|DICT|INTERRES
   125   64   65 1    
   126   64  130 1    
   127   65   66 1    
   128   65   69 1    
   129   65  131 1    
   130   66   67 am   BACKBONE|DICT|INTERRES
   131   66   68 2    
   132   67  132 1    
   133   67  133 1    
   134   69   70 1    
   135   69  134 1    
   136   69  135 1    
   137   70   71 1    
   138   71  136 1    
   139   71  137 1    
@<TRIPOS>SUBSTRUCTURE
     1 UNK         1 GROUP             0       ****    0 ROOT    
