@<TRIPOS>MOLECULE
3R136
137   139    1
SMALL
USER_CHARGES


@<TRIPOS>ATOM
      1 CA         30.2732   26.1448   -1.5588 C.3       0 UNK        -0.1979 
      2 C          29.4102   25.2627   -0.6706 C.2       0 UNK         0.4864 
      3 O          28.3980   25.7365   -0.1513 O.2       0 UNK        -0.5359 
      4 N          29.8041   23.9924   -0.4939 N.am      1 UNK        -0.4318 
      5 CA         29.1540   23.0031    0.3765 C.3       1 UNK         0.0824 
      6 C6         29.9324   21.6589    0.4717 C.3       12 UNK        -0.0944 
      7 S7         31.7456   21.8199    0.5900 S.3       12 UNK        -0.2672 
      8 C8         32.0118   21.8350    2.3903 C.3       12 UNK         0.0333 
      9 C9         31.6192   23.1662    3.0143 C.ar      12 UNK        -0.0807 
     10 C10        32.2155   24.3500    2.5679 C.ar      12 UNK        -0.0894 
     11 C11        31.8792   25.5753    3.1455 C.ar      12 UNK        -0.0804 
     12 C12        30.9576   25.6110    4.1915 C.ar      12 UNK        -0.0824 
     13 C13        30.3407   24.4402    4.6367 C.ar      12 UNK        -0.0762 
     14 C14        30.6750   23.2177    4.0452 C.ar      12 UNK        -0.0782 
     15 C15        29.3109   24.5036    5.7535 C.3       12 UNK         0.0230 
     16 S16        27.6311   24.7637    5.1004 S.3       12 UNK        -0.2608 
     17 C17        27.6932   26.5058    4.5477 C.3       12 UNK        -0.0989 
     18 CA         27.7776   26.6429    2.9989 C.3       5 UNK         0.0716 
     19 N          26.6590   25.9926    2.3029 N.am      5 UNK        -0.4135 
     20 C          25.3591   26.3043    2.4103 C.2       4 UNK         0.5031 
     21 O          24.9191   27.2371    3.0857 O.2       4 UNK        -0.5229 
     22 CA         24.3922   25.3891    1.6419 C.3       4 UNK         0.0329 
     23 CB         22.9087   25.7955    1.7844 C.3       4 UNK        -0.2001 
     24 N          24.7757   25.2307    0.2371 N.am      4 UNK        -0.4303 
     25 C          24.7517   26.1501   -0.7414 C.2       3 UNK         0.5044 
     26 O          24.3887   27.3151   -0.5778 O.2       3 UNK        -0.5152 
     27 CA         25.1924   25.6926   -2.1506 C.3       3 UNK         0.0319 
     28 CB         26.0855   26.7304   -2.8509 C.3       3 UNK        -0.2001 
     29 N          25.9007   24.4127   -2.1326 N.am      3 UNK        -0.4354 
     30 C          25.3276   23.2025   -2.1592 C.2       2 UNK         0.4964 
     31 O          24.1184   23.0197   -2.2977 O.2       2 UNK        -0.5047 
     32 CA         26.2548   21.9917   -1.9564 C.3       2 UNK         0.0288 
     33 CB         26.5256   21.2910   -3.2979 C.3       2 UNK        -0.2113 
     34 N          27.5361   22.3252   -1.3235 N.am      2 UNK        -0.4145 
     35 C          27.6992   22.7335   -0.0546 C.2       1 UNK         0.5006 
     36 O          26.7716   22.9315    0.7321 O.2       1 UNK        -0.5103 
     37 C          27.9435   28.1055    2.5288 C.2       5 UNK         0.5055 
     38 O          28.0025   29.0214    3.3516 O.2       5 UNK        -0.5220 
     39 N          27.9634   28.2970    1.2020 N.am      6 UNK        -0.4450 
     40 CA         27.8509   29.6062    0.5509 C.3       6 UNK         0.0367 
     41 CB         27.5344   29.4105   -0.9377 C.3       6 UNK        -0.1929 
     42 C          29.0660   30.5329    0.7135 C.2       6 UNK         0.5070 
     43 O          28.8864   31.7523    0.7178 O.2       6 UNK        -0.5237 
     44 N          30.2771   29.9690    0.8202 N.am      7 UNK        -0.4739 
     45 CA         31.5222   30.7339    0.9444 C.3       7 UNK         0.0276 
     46 CB         32.7038   29.9075    0.4079 C.3       7 UNK        -0.1927 
     47 C          31.7302   31.2073    2.3928 C.2       7 UNK         0.5013 
     48 O          32.5433   30.6370    3.1261 O.2       7 UNK        -0.5193 
     49 N          30.9569   32.2266    2.7878 N.am      8 UNK        -0.4253 
     50 CA         31.0003   32.8844    4.0963 C.3       8 UNK         0.0242 
     51 CB         29.9598   34.0150    4.1242 C.3       8 UNK        -0.2000 
     52 C          32.3982   33.4314    4.4330 C.2       8 UNK         0.4948 
     53 O          33.1240   33.8582    3.5314 O.2       8 UNK        -0.5275 
     54 N          32.7594   33.3739    5.7213 N.am      9 UNK        -0.4246 
     55 CA         34.0618   33.7080    6.3209 C.3       9 UNK         0.0261 
     56 CB         34.4601   35.1750    6.0624 C.3       9 UNK        -0.1959 
     57 C          35.2027   32.7420    5.9434 C.2       9 UNK         0.5033 
     58 O          36.0178   32.4243    6.8105 O.2       9 UNK        -0.5390 
     59 N          35.2378   32.2723    4.6885 N.am      10 UNK        -0.4215 
     60 CA         36.1552   31.2393    4.2007 C.3       10 UNK         0.0240 
     61 CB         36.0923   31.1656    2.6662 C.3       10 UNK        -0.1982 
     62 C          35.8632   29.8687    4.8342 C.2       10 UNK         0.4970 
     63 O          36.7881   29.2227    5.3291 O.2       10 UNK        -0.4916 
     64 N          34.5846   29.4766    4.8392 N.am      11 UNK        -0.4279 
     65 CA         34.0786   28.2612    5.4932 C.3       11 UNK         0.1003 
     66 C          32.5947   28.3515    5.9404 C.2       11 UNK         0.5709 
     67 N          31.7866   29.2677    5.4221 N.am      11 UNK        -0.7358 
     68 O          32.1709   27.5882    6.8044 O.2       11 UNK        -0.4999 
     69 C69        34.4064   26.9428    4.7293 C.3       12 UNK        -0.0954 
     70 S70        34.2634   27.0117    2.9071 S.3       12 UNK        -0.2268 
     71 C71        32.4739   26.8664    2.6125 C.3       12 UNK         0.0203 
     72 H72        30.6310   27.0062   -0.9958 H         1 UNK         0.0888 
     73 H73        29.6908   26.5081   -2.4049 H         1 UNK         0.0888 
     74 H74        31.1396   25.6094   -1.9465 H         1 UNK         0.0888 
     75 H75        30.6588   23.6743   -0.9292 H         1 UNK         0.3017 
     76 H76        29.1212   23.4424    1.3760 H         1 UNK         0.0873 
     77 H77        29.5678   21.0756    1.3194 H         1 UNK         0.0745 
     78 H78        29.7520   21.0382   -0.4082 H         1 UNK         0.0745 
     79 H79        31.4712   21.0048    2.8474 H         1 UNK         0.0705 
     80 H80        33.0698   21.6577    2.5878 H         1 UNK         0.0705 
     81 H81        32.9371   24.3191    1.7628 H         1 UNK         0.1334 
     82 H82        30.7029   26.5570    4.6458 H         1 UNK         0.1417 
     83 H83        30.2015   22.3087    4.3911 H         1 UNK         0.1562 
     84 H84        29.5611   25.2956    6.4615 H         1 UNK         0.0748 
     85 H85        29.3256   23.5735    6.3236 H         1 UNK         0.0748 
     86 H86        28.5300   27.0101    5.0311 H         1 UNK         0.0940 
     87 H87        26.8032   27.0099    4.9275 H         1 UNK         0.0940 
     88 H88        28.6754   26.1214    2.6656 H         1 UNK         0.0703 
     89 H89        26.9188   25.2450    1.6719 H         1 UNK         0.3081 
     90 H90        24.4974   24.4003    2.0917 H         1 UNK         0.0719 
     91 H91        22.7225   26.8027    1.4107 H         1 UNK         0.0809 
     92 H92        22.2556   25.1102    1.2443 H         1 UNK         0.0809 
     93 H93        22.6015   25.7790    2.8307 H         1 UNK         0.0809 
     94 H94        25.1471   24.3187    0.0034 H         1 UNK         0.2990 
     95 H95        24.2810   25.5869   -2.7427 H         1 UNK         0.0690 
     96 H96        26.3303   26.4185   -3.8663 H         1 UNK         0.0788 
     97 H97        27.0218   26.8781   -2.3138 H         1 UNK         0.0788 
     98 H98        25.5863   27.6971   -2.9264 H         1 UNK         0.0788 
     99 H99        26.8977   24.4622   -1.9799 H         1 UNK         0.2993 
    100 H100       25.7306   21.2919   -1.3016 H         1 UNK         0.0949 
    101 H101       25.5922   21.0001   -3.7824 H         1 UNK         0.0767 
    102 H102       27.0641   21.9388   -3.9910 H         1 UNK         0.0767 
    103 H103       27.1125   20.3825   -3.1604 H         1 UNK         0.0767 
    104 H104       28.3601   22.2194   -1.8981 H         1 UNK         0.3013 
    105 H105       27.9454   27.4738    0.6041 H         1 UNK         0.3121 
    106 H106       27.0012   30.1217    1.0042 H         1 UNK         0.0774 
    107 H107       28.2934   28.8082   -1.4380 H         1 UNK         0.0815 
    108 H108       27.4789   30.3673   -1.4589 H         1 UNK         0.0815 
    109 H109       26.5686   28.9242   -1.0644 H         1 UNK         0.0815 
    110 H110       30.3431   28.9628    0.8474 H         1 UNK         0.2987 
    111 H111       31.4529   31.6253    0.3161 H         1 UNK         0.0949 
    112 H112       32.9199   29.0441    1.0310 H         1 UNK         0.0806 
    113 H113       32.5180   29.5551   -0.6067 H         1 UNK         0.0806 
    114 H114       33.6108   30.5119    0.3778 H         1 UNK         0.0806 
    115 H115       30.2736   32.5721    2.1240 H         1 UNK         0.3010 
    116 H116       30.7266   32.1364    4.8432 H         1 UNK         0.0829 
    117 H117       28.9552   33.6353    3.9359 H         1 UNK         0.0813 
    118 H118       29.9413   34.5083    5.0971 H         1 UNK         0.0813 
    119 H119       30.1761   34.7786    3.3757 H         1 UNK         0.0813 
    120 H120       32.0885   32.9895    6.3732 H         1 UNK         0.3038 
    121 H121       33.9160   33.6011    7.3971 H         1 UNK         0.0769 
    122 H122       34.6744   35.3649    5.0105 H         1 UNK         0.0811 
    123 H123       35.3581   35.4358    6.6241 H         1 UNK         0.0811 
    124 H124       33.6726   35.8610    6.3740 H         1 UNK         0.0811 
    125 H125       34.5401   32.6279    4.0402 H         1 UNK         0.3204 
    126 H126       37.1691   31.5293    4.4846 H         1 UNK         0.0748 
    127 H127       36.7815   30.4114    2.2841 H         1 UNK         0.0771 
    128 H128       35.0953   30.9027    2.3131 H         1 UNK         0.0771 
    129 H129       36.3679   32.1175    2.2120 H         1 UNK         0.0771 
    130 H130       33.8941   30.0370    4.3498 H         1 UNK         0.2980 
    131 H131       34.6099   28.1991    6.4453 H         1 UNK         0.0545 
    132 H132       30.8366   29.3151    5.7519 H         1 UNK         0.3459 
    133 H133       32.0754   29.8395    4.6332 H         1 UNK         0.3459 
    134 H134       35.4443   26.6785    4.9357 H         1 UNK         0.0616 
    135 H135       33.8254   26.1011    5.1101 H         1 UNK         0.0616 
    136 H136       31.9681   27.7376    3.0298 H         1 UNK         0.0634 
    137 H137       32.2967   26.8989    1.5370 H         1 UNK         0.0634 
@<TRIPOS>BOND
     1    1    2 1    
     2    1   72 1    
     3    1   73 1    
     4    1   74 1    
     5    2    3 2    
     6    2    4 am   BACKBONE|DICT|INTERRES
     7    4    5 1    
     8    4   75 1    
     9    5    6 1    
    10    5   35 1    
    11    5   76 1    
    12    6    7 1    
    13    6   77 1    
    14    6   78 1    
    15    7    8 1    
    16    8    9 1    
    17    8   79 1    
    18    8   80 1    
    19    9   10 ar   
    20    9   14 ar   
    21   10   11 ar   
    22   10   81 1    
    23   11   12 ar   
    24   11   71 1    
    25   12   13 ar   
    26   12   82 1    
    27   13   14 ar   
    28   13   15 1    
    29   14   83 1    
    30   15   16 1    
    31   15   84 1    
    32   15   85 1    
    33   16   17 1    
    34   17   18 1    
    35   17   86 1    
    36   17   87 1    
    37   18   19 1    
    38   18   37 1    
    39   18   88 1    
    40   19   20 am   BACKBONE|DICT|INTERRES
    41   19   89 1    
    42   20   21 2    
    43   20   22 1    
    44   22   23 1    
    45   22   24 1    
    46   22   90 1    
    47   23   91 1    
    48   23   92 1    
    49   23   93 1    
    50   24   25 am   BACKBONE|DICT|INTERRES
    51   24   94 1    
    52   25   26 2    
    53   25   27 1    
    54   27   28 1    
    55   27   29 1    
    56   27   95 1    
    57   28   96 1    
    58   28   97 1    
    59   28   98 1    
    60   29   30 am   BACKBONE|DICT|INTERRES
    61   29   99 1    
    62   30   31 2    
    63   30   32 1    
    64   32   33 1    
    65   32   34 1    
    66   32  100 1    
    67   33  101 1    
    68   33  102 1    
    69   33  103 1    
    70   34   35 am   BACKBONE|DICT|INTERRES
    71   34  104 1    
    72   35   36 2    
    73   37   38 2    
    74   37   39 am   BACKBONE|DICT|INTERRES
    75   39   40 1    
    76   39  105 1    
    77   40   41 1    
    78   40   42 1    
    79   40  106 1    
    80   41  107 1    
    81   41  108 1    
    82   41  109 1    
    83   42   43 2    
    84   42   44 am   BACKBONE|DICT|INTERRES
    85   44   45 1    
    86   44  110 1    
    87   45   46 1    
    88   45   47 1    
    89   45  111 1    
    90   46  112 1    
    91   46  113 1    
    92   46  114 1    
    93   47   48 2    
    94   47   49 am   BACKBONE|DICT|INTERRES
    95   49   50 1    
    96   49  115 1    
    97   50   51 1    
    98   50   52 1    
    99   50  116 1    
   100   51  117 1    
   101   51  118 1    
   102   51  119 1    
   103   52   53 2    
   104   52   54 am   BACKBONE|DICT|INTERRES
   105   54   55 1    
   106   54  120 1    
   107   55   56 1    
   108   55   57 1    
   109   55  121 1    
   110   56  122 1    
   111   56  123 1    
   112   56  124 1    
   113   57   58 2    
   114   57   59 am   BACKBONE|DICT|INTERRES
   115   59   60 1    
   116   59  125 1    
   117   60   61 1    
   118   60   62 1    
   119   60  126 1    
   120   61  127 1    
   121   61  128 1    
   122   61  129 1    
   123   62   63 2    
   124   62   64 am   BACKBONE|DICT|INTERRES
   125   64   65 1    
   126   64  130 1    
   127   65   66 1    
   128   65   69 1    
   129   65  131 1    
   130   66   67 am   BACKBONE|DICT|INTERRES
   131   66   68 2    
   132   67  132 1    
   133   67  133 1    
   134   69   70 1    
   135   69  134 1    
   136   69  135 1    
   137   70   71 1    
   138   71  136 1    
   139   71  137 1    
@<TRIPOS>SUBSTRUCTURE
     1 UNK         1 GROUP             0       ****    0 ROOT    
