@<TRIPOS>MOLECULE
3R136
137   139    1
SMALL
USER_CHARGES


@<TRIPOS>ATOM
      1 CA         28.5474   18.3902   -1.9504 C.3       0 UNK        -0.1979 
      2 C          28.8124   19.8878   -1.9319 C.2       0 UNK         0.4864 
      3 O          28.6968   20.5457   -2.9674 O.2       0 UNK        -0.5359 
      4 N          29.1492   20.4418   -0.7604 N.am      1 UNK        -0.4318 
      5 CA         29.4623   21.8574   -0.5196 C.3       1 UNK         0.0824 
      6 C6         30.3849   22.0192    0.7175 C.3       12 UNK        -0.0944 
      7 S7         29.7426   21.2583    2.2529 S.3       12 UNK        -0.2672 
      8 C8         31.1898   21.3914    3.3510 C.3       12 UNK         0.0333 
      9 C9         31.4414   22.8278    3.7886 C.ar      12 UNK        -0.0807 
     10 C10        32.2505   23.6634    3.0168 C.ar      12 UNK        -0.0894 
     11 C11        32.4784   24.9859    3.4007 C.ar      12 UNK        -0.0804 
     12 C12        31.9177   25.4668    4.5887 C.ar      12 UNK        -0.0824 
     13 C13        31.1091   24.6386    5.3783 C.ar      12 UNK        -0.0762 
     14 C14        30.8737   23.3212    4.9670 C.ar      12 UNK        -0.0782 
     15 C15        30.5002   25.1289    6.6922 C.3       12 UNK         0.0230 
     16 S16        29.8223   26.8247    6.6434 S.3       12 UNK        -0.2608 
     17 C17        28.6201   26.7358    5.2729 C.3       12 UNK        -0.0989 
     18 CA         28.9372   27.8039    4.1900 C.3       5 UNK         0.0716 
     19 N          28.9477   27.2494    2.8360 N.am      5 UNK        -0.4135 
     20 C          29.5827   27.8225    1.8043 C.2       4 UNK         0.5031 
     21 O          30.3024   28.8181    1.9111 O.2       4 UNK        -0.5229 
     22 CA         29.3487   27.1925    0.4198 C.3       4 UNK         0.0329 
     23 CB         30.3931   26.1051    0.1368 C.3       4 UNK        -0.2001 
     24 N          27.9975   26.6364    0.2602 N.am      4 UNK        -0.4303 
     25 C          26.8912   27.3936    0.1905 C.2       3 UNK         0.5044 
     26 O          26.9176   28.6166    0.3208 O.2       3 UNK        -0.5152 
     27 CA         25.5231   26.7052    0.0004 C.3       3 UNK         0.0319 
     28 CB         24.6077   27.4963   -0.9589 C.3       3 UNK        -0.2001 
     29 N          25.5816   25.2890   -0.3807 N.am      3 UNK        -0.4354 
     30 C          26.0686   24.7580   -1.5119 C.2       2 UNK         0.4964 
     31 O          26.5727   25.4043   -2.4327 O.2       2 UNK        -0.5047 
     32 CA         26.0013   23.2236   -1.6047 C.3       2 UNK         0.0288 
     33 CB         25.3584   22.7720   -2.9282 C.3       2 UNK        -0.2113 
     34 N          27.3114   22.5837   -1.4670 N.am      2 UNK        -0.4145 
     35 C          28.2014   22.7591   -0.4786 C.2       1 UNK         0.5006 
     36 O          28.0505   23.5774    0.4332 O.2       1 UNK        -0.5103 
     37 C          28.0000   29.0277    4.2834 C.2       5 UNK         0.5055 
     38 O          28.3471   30.0138    4.9345 O.2       5 UNK        -0.5220 
     39 N          26.8423   28.9552    3.6068 N.am      6 UNK        -0.4450 
     40 CA         25.8413   30.0253    3.5403 C.3       6 UNK         0.0367 
     41 CB         24.5550   29.4951    2.8871 C.3       6 UNK        -0.1929 
     42 C          26.3453   31.2794    2.8065 C.2       6 UNK         0.5070 
     43 O          25.9870   32.3913    3.1966 O.2       6 UNK        -0.5237 
     44 N          27.2013   31.0917    1.7925 N.am      7 UNK        -0.4739 
     45 CA         27.8972   32.1329    1.0287 C.3       7 UNK         0.0276 
     46 CB         28.4277   31.5097   -0.2766 C.3       7 UNK        -0.1927 
     47 C          29.0101   32.8353    1.8386 C.2       7 UNK         0.5013 
     48 O          30.1549   32.9004    1.3869 O.2       7 UNK        -0.5193 
     49 N          28.6452   33.3449    3.0238 N.am      8 UNK        -0.4253 
     50 CA         29.4702   34.0773    3.9911 C.3       8 UNK         0.0242 
     51 CB         29.8304   35.4728    3.4369 C.3       8 UNK        -0.2000 
     52 C          30.7043   33.2907    4.4798 C.2       8 UNK         0.4948 
     53 O          31.7537   33.8971    4.7036 O.2       8 UNK        -0.5275 
     54 N          30.5475   31.9665    4.6480 N.am      9 UNK        -0.4246 
     55 CA         31.5623   30.9925    5.0647 C.3       9 UNK         0.0261 
     56 CB         31.9223   31.1855    6.5529 C.3       9 UNK        -0.1959 
     57 C          32.7964   31.0029    4.1457 C.2       9 UNK         0.5033 
     58 O          33.8713   31.4373    4.5673 O.2       9 UNK        -0.5390 
     59 N          32.6299   30.5132    2.9060 N.am      10 UNK        -0.4215 
     60 CA         33.6688   30.4990    1.8627 C.3       10 UNK         0.0240 
     61 CB         33.0747   29.9206    0.5672 C.3       10 UNK        -0.1982 
     62 C          34.9625   29.7459    2.2386 C.2       10 UNK         0.4970 
     63 O          36.0179   30.0411    1.6766 O.2       10 UNK        -0.4916 
     64 N          34.8534   28.8041    3.1815 N.am      11 UNK        -0.4279 
     65 CA         35.9597   28.0390    3.7709 C.3       11 UNK         0.1003 
     66 C          36.6550   28.7586    4.9645 C.2       11 UNK         0.5709 
     67 N          36.2024   29.9251    5.4120 N.am      11 UNK        -0.7358 
     68 O          37.6438   28.2523    5.4902 O.2       11 UNK        -0.4999 
     69 C69        35.4939   26.6083    4.1539 C.3       12 UNK        -0.0954 
     70 S70        35.0880   25.6139    2.6808 S.3       12 UNK        -0.2268 
     71 C71        33.2994   25.8912    2.4986 C.3       12 UNK         0.0203 
     72 H72        27.5205   18.1948   -2.2587 H         1 UNK         0.0888 
     73 H73        29.2155   17.9000   -2.6579 H         1 UNK         0.0888 
     74 H74        28.7003   17.9376   -0.9708 H         1 UNK         0.0888 
     75 H75        29.1907   19.8613    0.0663 H         1 UNK         0.3017 
     76 H76        30.0353   22.2145   -1.3783 H         1 UNK         0.0873 
     77 H77        31.3535   21.5669    0.4985 H         1 UNK         0.0745 
     78 H78        30.5893   23.0728    0.9005 H         1 UNK         0.0745 
     79 H79        31.0244   20.7611    4.2261 H         1 UNK         0.0705 
     80 H80        32.0704   20.9864    2.8496 H         1 UNK         0.0705 
     81 H81        32.6941   23.2891    2.1044 H         1 UNK         0.1334 
     82 H82        32.1011   26.4873    4.8940 H         1 UNK         0.1417 
     83 H83        30.2509   22.6721    5.5677 H         1 UNK         0.1562 
     84 H84        31.2683   25.0856    7.4652 H         1 UNK         0.0748 
     85 H85        29.7029   24.4581    7.0161 H         1 UNK         0.0748 
     86 H86        27.6137   26.8421    5.6837 H         1 UNK         0.0940 
     87 H87        28.6458   25.7314    4.8480 H         1 UNK         0.0940 
     88 H88        29.9479   28.1752    4.3634 H         1 UNK         0.0703 
     89 H89        28.4051   26.4153    2.6670 H         1 UNK         0.3081 
     90 H90        29.4728   27.9814   -0.3255 H         1 UNK         0.0719 
     91 H91        31.3896   26.5420    0.0729 H         1 UNK         0.0809 
     92 H92        30.2013   25.6003   -0.8102 H         1 UNK         0.0809 
     93 H93        30.4098   25.3529    0.9253 H         1 UNK         0.0809 
     94 H94        27.9134   25.6271    0.1860 H         1 UNK         0.2990 
     95 H95        25.0512   26.7229    0.9840 H         1 UNK         0.0690 
     96 H96        23.6305   27.0232   -1.0559 H         1 UNK         0.0788 
     97 H97        25.0413   27.5799   -1.9562 H         1 UNK         0.0788 
     98 H98        24.4382   28.5113   -0.5963 H         1 UNK         0.0788 
     99 H99        25.2397   24.6474    0.3226 H         1 UNK         0.2993 
    100 H100       25.3767   22.8515   -0.7892 H         1 UNK         0.0949 
    101 H101       25.2210   21.6904   -2.9547 H         1 UNK         0.0767 
    102 H102       24.3753   23.2262   -3.0605 H         1 UNK         0.0767 
    103 H103       25.9672   23.0533   -3.7894 H         1 UNK         0.0767 
    104 H104       27.5656   21.9118   -2.1858 H         1 UNK         0.3013 
    105 H105       26.6463   28.1219    3.0748 H         1 UNK         0.3121 
    106 H106       25.6050   30.3196    4.5653 H         1 UNK         0.0774 
    107 H107       24.7180   29.1997    1.8507 H         1 UNK         0.0815 
    108 H108       23.7784   30.2610    2.8852 H         1 UNK         0.0815 
    109 H109       24.1577   28.6350    3.4262 H         1 UNK         0.0815 
    110 H110       27.3705   30.1369    1.4897 H         1 UNK         0.2987 
    111 H111       27.1693   32.9012    0.7593 H         1 UNK         0.0949 
    112 H112       29.1591   30.7251   -0.0763 H         1 UNK         0.0806 
    113 H113       27.6204   31.0714   -0.8640 H         1 UNK         0.0806 
    114 H114       28.9125   32.2591   -0.9038 H         1 UNK         0.0806 
    115 H115       27.6737   33.1968    3.2909 H         1 UNK         0.3010 
    116 H116       28.8436   34.2252    4.8721 H         1 UNK         0.0829 
    117 H117       30.5025   35.4046    2.5806 H         1 UNK         0.0813 
    118 H118       28.9402   36.0175    3.1226 H         1 UNK         0.0813 
    119 H119       30.3282   36.0802    4.1940 H         1 UNK         0.0813 
    120 H120       29.6315   31.5669    4.4701 H         1 UNK         0.3038 
    121 H121       31.1104   30.0067    4.9702 H         1 UNK         0.0769 
    122 H122       32.6360   30.4289    6.8816 H         1 UNK         0.0811 
    123 H123       32.3734   32.1604    6.7410 H         1 UNK         0.0811 
    124 H124       31.0399   31.0959    7.1867 H         1 UNK         0.0811 
    125 H125       31.7194   30.1535    2.6299 H         1 UNK         0.3204 
    126 H126       33.9465   31.5387    1.6758 H         1 UNK         0.0748 
    127 H127       33.7985   29.9597   -0.2483 H         1 UNK         0.0771 
    128 H128       32.7782   28.8778    0.6907 H         1 UNK         0.0771 
    129 H129       32.1961   30.4828    0.2481 H         1 UNK         0.0771 
    130 H130       33.9490   28.6624    3.6015 H         1 UNK         0.2980 
    131 H131       36.7396   27.9354    3.0140 H         1 UNK         0.0545 
    132 H132       35.3966   30.3831    4.9942 H         1 UNK         0.3459 
    133 H133       36.6790   30.3685    6.1806 H         1 UNK         0.3459 
    134 H134       36.2847   26.0725    4.6821 H         1 UNK         0.0616 
    135 H135       34.6425   26.6388    4.8352 H         1 UNK         0.0616 
    136 H136       33.0431   26.9365    2.6663 H         1 UNK         0.0634 
    137 H137       33.0413   25.6848    1.4602 H         1 UNK         0.0634 
@<TRIPOS>BOND
     1    1    2 1    
     2    1   72 1    
     3    1   73 1    
     4    1   74 1    
     5    2    3 2    
     6    2    4 am   BACKBONE|DICT|INTERRES
     7    4    5 1    
     8    4   75 1    
     9    5    6 1    
    10    5   35 1    
    11    5   76 1    
    12    6    7 1    
    13    6   77 1    
    14    6   78 1    
    15    7    8 1    
    16    8    9 1    
    17    8   79 1    
    18    8   80 1    
    19    9   10 ar   
    20    9   14 ar   
    21   10   11 ar   
    22   10   81 1    
    23   11   12 ar   
    24   11   71 1    
    25   12   13 ar   
    26   12   82 1    
    27   13   14 ar   
    28   13   15 1    
    29   14   83 1    
    30   15   16 1    
    31   15   84 1    
    32   15   85 1    
    33   16   17 1    
    34   17   18 1    
    35   17   86 1    
    36   17   87 1    
    37   18   19 1    
    38   18   37 1    
    39   18   88 1    
    40   19   20 am   BACKBONE|DICT|INTERRES
    41   19   89 1    
    42   20   21 2    
    43   20   22 1    
    44   22   23 1    
    45   22   24 1    
    46   22   90 1    
    47   23   91 1    
    48   23   92 1    
    49   23   93 1    
    50   24   25 am   BACKBONE|DICT|INTERRES
    51   24   94 1    
    52   25   26 2    
    53   25   27 1    
    54   27   28 1    
    55   27   29 1    
    56   27   95 1    
    57   28   96 1    
    58   28   97 1    
    59   28   98 1    
    60   29   30 am   BACKBONE|DICT|INTERRES
    61   29   99 1    
    62   30   31 2    
    63   30   32 1    
    64   32   33 1    
    65   32   34 1    
    66   32  100 1    
    67   33  101 1    
    68   33  102 1    
    69   33  103 1    
    70   34   35 am   BACKBONE|DICT|INTERRES
    71   34  104 1    
    72   35   36 2    
    73   37   38 2    
    74   37   39 am   BACKBONE|DICT|INTERRES
    75   39   40 1    
    76   39  105 1    
    77   40   41 1    
    78   40   42 1    
    79   40  106 1    
    80   41  107 1    
    81   41  108 1    
    82   41  109 1    
    83   42   43 2    
    84   42   44 am   BACKBONE|DICT|INTERRES
    85   44   45 1    
    86   44  110 1    
    87   45   46 1    
    88   45   47 1    
    89   45  111 1    
    90   46  112 1    
    91   46  113 1    
    92   46  114 1    
    93   47   48 2    
    94   47   49 am   BACKBONE|DICT|INTERRES
    95   49   50 1    
    96   49  115 1    
    97   50   51 1    
    98   50   52 1    
    99   50  116 1    
   100   51  117 1    
   101   51  118 1    
   102   51  119 1    
   103   52   53 2    
   104   52   54 am   BACKBONE|DICT|INTERRES
   105   54   55 1    
   106   54  120 1    
   107   55   56 1    
   108   55   57 1    
   109   55  121 1    
   110   56  122 1    
   111   56  123 1    
   112   56  124 1    
   113   57   58 2    
   114   57   59 am   BACKBONE|DICT|INTERRES
   115   59   60 1    
   116   59  125 1    
   117   60   61 1    
   118   60   62 1    
   119   60  126 1    
   120   61  127 1    
   121   61  128 1    
   122   61  129 1    
   123   62   63 2    
   124   62   64 am   BACKBONE|DICT|INTERRES
   125   64   65 1    
   126   64  130 1    
   127   65   66 1    
   128   65   69 1    
   129   65  131 1    
   130   66   67 am   BACKBONE|DICT|INTERRES
   131   66   68 2    
   132   67  132 1    
   133   67  133 1    
   134   69   70 1    
   135   69  134 1    
   136   69  135 1    
   137   70   71 1    
   138   71  136 1    
   139   71  137 1    
@<TRIPOS>SUBSTRUCTURE
     1 UNK         1 GROUP             0       ****    0 ROOT    
