@<TRIPOS>MOLECULE
3R136
137   139    1
SMALL
USER_CHARGES


@<TRIPOS>ATOM
      1 CA         32.6140   22.1567   -2.0706 C.3       0 UNK        -0.1979 
      2 C          31.4462   23.1275   -2.1667 C.2       0 UNK         0.4864 
      3 O          30.9701   23.4062   -3.2684 O.2       0 UNK        -0.5359 
      4 N          30.9848   23.6468   -1.0225 N.am      1 UNK        -0.4318 
      5 CA         29.8400   24.5531   -0.9188 C.3       1 UNK         0.0824 
      6 C6         29.8193   25.3051    0.4360 C.3       12 UNK        -0.0944 
      7 S7         31.1692   26.5197    0.5881 S.3       12 UNK        -0.2672 
      8 C8         32.4335   25.5868    1.5225 C.3       12 UNK         0.0333 
      9 C9         32.0782   25.1985    2.9594 C.ar      12 UNK        -0.0807 
     10 C10        32.8970   24.2711    3.6086 C.ar      12 UNK        -0.0894 
     11 C11        32.6568   23.9026    4.9347 C.ar      12 UNK        -0.0804 
     12 C12        31.5695   24.4535    5.6167 C.ar      12 UNK        -0.0824 
     13 C13        30.7381   25.3833    4.9859 C.ar      12 UNK        -0.0762 
     14 C14        31.0007   25.7543    3.6611 C.ar      12 UNK        -0.0782 
     15 C15        29.6067   26.0410    5.7636 C.3       12 UNK         0.0230 
     16 S16        27.9911   25.8880    4.9297 S.3       12 UNK        -0.2608 
     17 C17        27.4058   27.6080    5.0759 C.3       12 UNK        -0.0989 
     18 CA         27.8829   28.4502    3.8697 C.3       5 UNK         0.0716 
     19 N          27.1182   28.1546    2.6598 N.am      5 UNK        -0.4135 
     20 C          27.3781   28.6157    1.4316 C.2       4 UNK         0.5031 
     21 O          28.3168   29.3749    1.1740 O.2       4 UNK        -0.5229 
     22 CA         26.4293   28.1578    0.3029 C.3       4 UNK         0.0329 
     23 CB         27.0194   28.4150   -1.0965 C.3       4 UNK        -0.2001 
     24 N          26.0530   26.7426    0.3860 N.am      4 UNK        -0.4303 
     25 C          25.1653   26.1878    1.2231 C.2       3 UNK         0.5044 
     26 O          24.5922   26.8243    2.1080 O.2       3 UNK        -0.5152 
     27 CA         24.9053   24.6703    1.0916 C.3       3 UNK         0.0319 
     28 CB         23.3986   24.3386    1.1145 C.3       3 UNK        -0.2001 
     29 N          25.5773   24.0355   -0.0538 N.am      3 UNK        -0.4354 
     30 C          25.3545   24.2305   -1.3630 C.2       2 UNK         0.4964 
     31 O          24.4604   24.9489   -1.8109 O.2       2 UNK        -0.5047 
     32 CA         26.3754   23.5820   -2.3184 C.3       2 UNK         0.0288 
     33 CB         26.0080   23.7733   -3.8022 C.3       2 UNK        -0.2113 
     34 N          27.7147   24.1349   -2.0852 N.am      2 UNK        -0.4145 
     35 C          28.5377   23.7533   -1.0989 C.2       1 UNK         0.5006 
     36 O          28.2729   22.8426   -0.3095 O.2       1 UNK        -0.5103 
     37 C          27.8610   29.9550    4.1832 C.2       5 UNK         0.5055 
     38 O          26.7890   30.5143    4.4205 O.2       5 UNK        -0.5220 
     39 N          29.0530   30.5643    4.1402 N.am      6 UNK        -0.4450 
     40 CA         29.3637   31.9898    4.2988 C.3       6 UNK         0.0367 
     41 CB         28.8688   32.5346    5.6546 C.3       6 UNK        -0.1929 
     42 C          28.9164   32.8721    3.1157 C.2       6 UNK         0.5070 
     43 O          29.1614   34.0785    3.1514 O.2       6 UNK        -0.5237 
     44 N          28.3101   32.2757    2.0807 N.am      7 UNK        -0.4739 
     45 CA         27.9684   32.9361    0.8217 C.3       7 UNK         0.0276 
     46 CB         26.6121   32.4207    0.3122 C.3       7 UNK        -0.1927 
     47 C          29.0803   32.6990   -0.2080 C.2       7 UNK         0.5013 
     48 O          29.5459   33.6577   -0.8250 O.2       7 UNK        -0.5193 
     49 N          29.5038   31.4354   -0.3496 N.am      8 UNK        -0.4253 
     50 CA         30.6501   31.0339   -1.1620 C.3       8 UNK         0.0242 
     51 CB         30.3936   29.6464   -1.7742 C.3       8 UNK        -0.2000 
     52 C          31.9299   31.0352   -0.3159 C.2       8 UNK         0.4948 
     53 O          32.9072   31.6806   -0.6969 O.2       8 UNK        -0.5275 
     54 N          31.8940   30.3251    0.8178 N.am      9 UNK        -0.4246 
     55 CA         32.9883   30.1420    1.7689 C.3       9 UNK         0.0261 
     56 CB         34.1161   29.2972    1.1363 C.3       9 UNK        -0.1959 
     57 C          32.4204   29.4746    3.0297 C.2       9 UNK         0.5033 
     58 O          31.2208   29.1884    3.0817 O.2       9 UNK        -0.5390 
     59 N          33.2754   29.2401    4.0288 N.am      10 UNK        -0.4215 
     60 CA         32.9463   28.5044    5.2452 C.3       10 UNK         0.0240 
     61 CB         32.2383   29.4240    6.2583 C.3       10 UNK        -0.1982 
     62 C          34.2299   27.9118    5.8331 C.2       10 UNK         0.4970 
     63 O          35.2932   28.5223    5.6971 O.2       10 UNK        -0.4916 
     64 N          34.0992   26.7604    6.5024 N.am      11 UNK        -0.4279 
     65 CA         35.1720   26.1252    7.2872 C.3       11 UNK         0.1003 
     66 C          35.4587   26.8217    8.6517 C.2       11 UNK         0.5709 
     67 N          34.6224   27.7370    9.1284 N.am      11 UNK        -0.7358 
     68 O          36.4700   26.5316    9.2866 O.2       11 UNK        -0.4999 
     69 C69        34.9178   24.6050    7.4819 C.3       12 UNK        -0.0954 
     70 S70        35.2147   23.6423    5.9616 S.3       12 UNK        -0.2268 
     71 C71        33.5823   22.9111    5.6212 C.3       12 UNK         0.0203 
     72 H72        33.4604   22.5303   -2.6463 H         1 UNK         0.0888 
     73 H73        32.9417   22.0130   -1.0411 H         1 UNK         0.0888 
     74 H74        32.3286   21.1857   -2.4744 H         1 UNK         0.0888 
     75 H75        31.3838   23.3490   -0.1450 H         1 UNK         0.3017 
     76 H76        29.9114   25.2933   -1.7193 H         1 UNK         0.0873 
     77 H77        28.8892   25.8645    0.5502 H         1 UNK         0.0745 
     78 H78        29.8493   24.6046    1.2726 H         1 UNK         0.0745 
     79 H79        33.3402   26.1905    1.5577 H         1 UNK         0.0705 
     80 H80        32.6915   24.6913    0.9571 H         1 UNK         0.0705 
     81 H81        33.7430   23.8445    3.0864 H         1 UNK         0.1334 
     82 H82        31.3822   24.1704    6.6438 H         1 UNK         0.1417 
     83 H83        30.3731   26.4955    3.1890 H         1 UNK         0.1562 
     84 H84        29.8699   27.0905    5.9018 H         1 UNK         0.0748 
     85 H85        29.5181   25.6154    6.7643 H         1 UNK         0.0748 
     86 H86        27.7588   28.0214    6.0232 H         1 UNK         0.0940 
     87 H87        26.3161   27.6112    5.1436 H         1 UNK         0.0940 
     88 H88        28.9163   28.1773    3.6558 H         1 UNK         0.0703 
     89 H89        26.2837   27.5902    2.7767 H         1 UNK         0.3081 
     90 H90        25.5214   28.7569    0.3975 H         1 UNK         0.0719 
     91 H91        27.9408   27.8530   -1.2518 H         1 UNK         0.0809 
     92 H92        26.3174   28.1317   -1.8811 H         1 UNK         0.0809 
     93 H93        27.2510   29.4700   -1.2443 H         1 UNK         0.0809 
     94 H94        26.4736   26.1337   -0.2979 H         1 UNK         0.2990 
     95 H95        25.3513   24.2194    1.9794 H         1 UNK         0.0690 
     96 H96        23.2272   23.2647    1.0419 H         1 UNK         0.0788 
     97 H97        22.8620   24.8211    0.2972 H         1 UNK         0.0788 
     98 H98        22.9386   24.6761    2.0442 H         1 UNK         0.0788 
     99 H99        26.3698   23.4456    0.1837 H         1 UNK         0.2993 
    100 H100       26.3836   22.5090   -2.1125 H         1 UNK         0.0949 
    101 H101       25.9874   24.8270   -4.0837 H         1 UNK         0.0767 
    102 H102       26.7198   23.2663   -4.4543 H         1 UNK         0.0767 
    103 H103       25.0221   23.3584   -4.0166 H         1 UNK         0.0767 
    104 H104       28.0018   24.8843   -2.6990 H         1 UNK         0.3013 
    105 H105       29.8483   29.9956    3.8395 H         1 UNK         0.3121 
    106 H106       30.4534   32.0446    4.3070 H         1 UNK         0.0774 
    107 H107       29.2489   33.5416    5.8311 H         1 UNK         0.0815 
    108 H108       27.7811   32.5905    5.6996 H         1 UNK         0.0815 
    109 H109       29.2098   31.9117    6.4814 H         1 UNK         0.0815 
    110 H110       28.1855   31.2709    2.1140 H         1 UNK         0.2987 
    111 H111       27.8781   34.0140    0.9758 H         1 UNK         0.0949 
    112 H112       26.3444   32.8979   -0.6315 H         1 UNK         0.0806 
    113 H113       26.6173   31.3450    0.1433 H         1 UNK         0.0806 
    114 H114       25.8160   32.6410    1.0236 H         1 UNK         0.0806 
    115 H115       29.0640   30.7047    0.2076 H         1 UNK         0.3010 
    116 H116       30.7879   31.7404   -1.9836 H         1 UNK         0.0829 
    117 H117       29.5451   29.6689   -2.4577 H         1 UNK         0.0813 
    118 H118       31.2588   29.3036   -2.3432 H         1 UNK         0.0813 
    119 H119       30.1878   28.8965   -1.0101 H         1 UNK         0.0813 
    120 H120       31.0449   29.8391    1.0876 H         1 UNK         0.3038 
    121 H121       33.3754   31.1221    2.0534 H         1 UNK         0.0769 
    122 H122       34.9094   29.0736    1.8499 H         1 UNK         0.0811 
    123 H123       34.5853   29.8193    0.3028 H         1 UNK         0.0811 
    124 H124       33.7375   28.3491    0.7561 H         1 UNK         0.0811 
    125 H125       34.2544   29.4827    3.9375 H         1 UNK         0.3204 
    126 H126       32.2818   27.6828    4.9868 H         1 UNK         0.0748 
    127 H127       31.9859   28.8834    7.1710 H         1 UNK         0.0771 
    128 H128       32.8666   30.2701    6.5394 H         1 UNK         0.0771 
    129 H129       31.3068   29.8205    5.8552 H         1 UNK         0.0771 
    130 H130       33.1977   26.3096    6.5417 H         1 UNK         0.2980 
    131 H131       36.0988   26.2306    6.7196 H         1 UNK         0.0545 
    132 H132       34.8297   28.1791   10.0101 H         1 UNK         0.3459 
    133 H133       33.7893   27.9870    8.6228 H         1 UNK         0.3459 
    134 H134       33.9081   24.4276    7.8555 H         1 UNK         0.0616 
    135 H135       35.5906   24.1897    8.2347 H         1 UNK         0.0616 
    136 H136       33.7177   22.0451    4.9717 H         1 UNK         0.0634 
    137 H137       33.1450   22.5318    6.5460 H         1 UNK         0.0634 
@<TRIPOS>BOND
     1    1    2 1    
     2    1   72 1    
     3    1   73 1    
     4    1   74 1    
     5    2    3 2    
     6    2    4 am   BACKBONE|DICT|INTERRES
     7    4    5 1    
     8    4   75 1    
     9    5    6 1    
    10    5   35 1    
    11    5   76 1    
    12    6    7 1    
    13    6   77 1    
    14    6   78 1    
    15    7    8 1    
    16    8    9 1    
    17    8   79 1    
    18    8   80 1    
    19    9   10 ar   
    20    9   14 ar   
    21   10   11 ar   
    22   10   81 1    
    23   11   12 ar   
    24   11   71 1    
    25   12   13 ar   
    26   12   82 1    
    27   13   14 ar   
    28   13   15 1    
    29   14   83 1    
    30   15   16 1    
    31   15   84 1    
    32   15   85 1    
    33   16   17 1    
    34   17   18 1    
    35   17   86 1    
    36   17   87 1    
    37   18   19 1    
    38   18   37 1    
    39   18   88 1    
    40   19   20 am   BACKBONE|DICT|INTERRES
    41   19   89 1    
    42   20   21 2    
    43   20   22 1    
    44   22   23 1    
    45   22   24 1    
    46   22   90 1    
    47   23   91 1    
    48   23   92 1    
    49   23   93 1    
    50   24   25 am   BACKBONE|DICT|INTERRES
    51   24   94 1    
    52   25   26 2    
    53   25   27 1    
    54   27   28 1    
    55   27   29 1    
    56   27   95 1    
    57   28   96 1    
    58   28   97 1    
    59   28   98 1    
    60   29   30 am   BACKBONE|DICT|INTERRES
    61   29   99 1    
    62   30   31 2    
    63   30   32 1    
    64   32   33 1    
    65   32   34 1    
    66   32  100 1    
    67   33  101 1    
    68   33  102 1    
    69   33  103 1    
    70   34   35 am   BACKBONE|DICT|INTERRES
    71   34  104 1    
    72   35   36 2    
    73   37   38 2    
    74   37   39 am   BACKBONE|DICT|INTERRES
    75   39   40 1    
    76   39  105 1    
    77   40   41 1    
    78   40   42 1    
    79   40  106 1    
    80   41  107 1    
    81   41  108 1    
    82   41  109 1    
    83   42   43 2    
    84   42   44 am   BACKBONE|DICT|INTERRES
    85   44   45 1    
    86   44  110 1    
    87   45   46 1    
    88   45   47 1    
    89   45  111 1    
    90   46  112 1    
    91   46  113 1    
    92   46  114 1    
    93   47   48 2    
    94   47   49 am   BACKBONE|DICT|INTERRES
    95   49   50 1    
    96   49  115 1    
    97   50   51 1    
    98   50   52 1    
    99   50  116 1    
   100   51  117 1    
   101   51  118 1    
   102   51  119 1    
   103   52   53 2    
   104   52   54 am   BACKBONE|DICT|INTERRES
   105   54   55 1    
   106   54  120 1    
   107   55   56 1    
   108   55   57 1    
   109   55  121 1    
   110   56  122 1    
   111   56  123 1    
   112   56  124 1    
   113   57   58 2    
   114   57   59 am   BACKBONE|DICT|INTERRES
   115   59   60 1    
   116   59  125 1    
   117   60   61 1    
   118   60   62 1    
   119   60  126 1    
   120   61  127 1    
   121   61  128 1    
   122   61  129 1    
   123   62   63 2    
   124   62   64 am   BACKBONE|DICT|INTERRES
   125   64   65 1    
   126   64  130 1    
   127   65   66 1    
   128   65   69 1    
   129   65  131 1    
   130   66   67 am   BACKBONE|DICT|INTERRES
   131   66   68 2    
   132   67  132 1    
   133   67  133 1    
   134   69   70 1    
   135   69  134 1    
   136   69  135 1    
   137   70   71 1    
   138   71  136 1    
   139   71  137 1    
@<TRIPOS>SUBSTRUCTURE
     1 UNK         1 GROUP             0       ****    0 ROOT    
