@<TRIPOS>MOLECULE
3R136
137   139    1
SMALL
USER_CHARGES


@<TRIPOS>ATOM
      1 CA         32.8752   22.3177    0.1664 C.3       0 UNK        -0.1979 
      2 C          31.5000   22.9273   -0.0609 C.2       0 UNK         0.4864 
      3 O          30.5254   22.1844   -0.1769 O.2       0 UNK        -0.5359 
      4 N          31.4351   24.2654   -0.1317 N.am      1 UNK        -0.4318 
      5 CA         30.2787   25.1638   -0.3045 C.3       1 UNK         0.0824 
      6 C6         29.4033   25.3428    0.9689 C.3       12 UNK        -0.0944 
      7 S7         28.2819   23.9680    1.4195 S.3       12 UNK        -0.2672 
      8 C8         29.1201   23.2161    2.8534 C.3       12 UNK         0.0333 
      9 C9         29.1363   24.1493    4.0544 C.ar      12 UNK        -0.0807 
     10 C10        30.3222   24.7755    4.4435 C.ar      12 UNK        -0.0894 
     11 C11        30.3387   25.6719    5.5171 C.ar      12 UNK        -0.0804 
     12 C12        29.1464   25.9356    6.2029 C.ar      12 UNK        -0.0824 
     13 C13        27.9530   25.2982    5.8392 C.ar      12 UNK        -0.0762 
     14 C14        27.9648   24.3876    4.7759 C.ar      12 UNK        -0.0782 
     15 C15        26.6710   25.5732    6.6258 C.3       12 UNK         0.0230 
     16 S16        25.1645   25.6860    5.5934 S.3       12 UNK        -0.2608 
     17 C17        25.4366   27.2478    4.6889 C.3       12 UNK        -0.0989 
     18 CA         26.0898   27.0262    3.2976 C.3       5 UNK         0.0716 
     19 N          25.3407   26.1268    2.4175 N.am      5 UNK        -0.4135 
     20 C          24.1675   26.3672    1.8200 C.2       4 UNK         0.5031 
     21 O          23.5198   27.4094    1.9393 O.2       4 UNK        -0.5229 
     22 CA         23.6459   25.2356    0.9137 C.3       4 UNK         0.0329 
     23 CB         22.1227   25.0638    1.0546 C.3       4 UNK        -0.2001 
     24 N          23.9771   25.3940   -0.5086 N.am      4 UNK        -0.4303 
     25 C          25.1781   25.6687   -1.0383 C.2       3 UNK         0.5044 
     26 O          26.1811   25.9697   -0.3874 O.2       3 UNK        -0.5152 
     27 CA         25.2800   25.5853   -2.5686 C.3       3 UNK         0.0319 
     28 CB         25.1616   26.9754   -3.2111 C.3       3 UNK        -0.2001 
     29 N          26.5682   24.9970   -2.9276 N.am      3 UNK        -0.4354 
     30 C          26.8249   23.6846   -2.9586 C.2       2 UNK         0.4964 
     31 O          25.9573   22.8144   -2.8719 O.2       2 UNK        -0.5047 
     32 CA         28.3006   23.2668   -3.0829 C.3       2 UNK         0.0288 
     33 CB         28.9018   23.6646   -4.4464 C.3       2 UNK        -0.2113 
     34 N          29.1277   23.7298   -1.9604 N.am      2 UNK        -0.4145 
     35 C          29.4541   24.9784   -1.6008 C.2       1 UNK         0.5006 
     36 O          29.1467   25.9749   -2.2582 O.2       1 UNK        -0.5103 
     37 C          26.5131   28.3373    2.6060 C.2       5 UNK         0.5055 
     38 O          26.5558   29.3884    3.2508 O.2       5 UNK        -0.5220 
     39 N          26.9014   28.2518    1.3244 N.am      6 UNK        -0.4450 
     40 CA         27.6514   29.2920    0.6138 C.3       6 UNK         0.0367 
     41 CB         27.5207   29.0678   -0.9008 C.3       6 UNK        -0.1929 
     42 C          29.1180   29.3041    1.0909 C.2       6 UNK         0.5070 
     43 O          30.0273   28.9218    0.3518 O.2       6 UNK        -0.5237 
     44 N          29.3055   29.6842    2.3589 N.am      7 UNK        -0.4739 
     45 CA         30.5645   29.6532    3.0939 C.3       7 UNK         0.0276 
     46 CB         30.2486   29.6391    4.6012 C.3       7 UNK        -0.1927 
     47 C          31.4779   30.8211    2.6936 C.2       7 UNK         0.5013 
     48 O          31.5976   31.7971    3.4389 O.2       7 UNK        -0.5193 
     49 N          32.1024   30.7036    1.5144 N.am      8 UNK        -0.4253 
     50 CA         33.1133   31.6279    0.9939 C.3       8 UNK         0.0242 
     51 CB         33.5978   31.1350   -0.3788 C.3       8 UNK        -0.2000 
     52 C          34.2900   31.7627    1.9745 C.2       8 UNK         0.4948 
     53 O          34.8630   30.7448    2.3706 O.2       8 UNK        -0.5275 
     54 N          34.5695   33.0033    2.4016 N.am      9 UNK        -0.4246 
     55 CA         35.5344   33.3748    3.4484 C.3       9 UNK         0.0261 
     56 CB         36.9798   33.1632    2.9486 C.3       9 UNK        -0.1959 
     57 C          35.2684   32.6775    4.8021 C.2       9 UNK         0.5033 
     58 O          36.2170   32.3585    5.5219 O.2       9 UNK        -0.5390 
     59 N          33.9865   32.4026    5.0994 N.am      10 UNK        -0.4215 
     60 CA         33.4852   31.6326    6.2464 C.3       10 UNK         0.0240 
     61 CB         33.7158   32.4027    7.5645 C.3       10 UNK        -0.1982 
     62 C          34.0248   30.1862    6.2977 C.2       10 UNK         0.4970 
     63 O          34.1186   29.6152    7.3852 O.2       10 UNK        -0.4916 
     64 N          34.3866   29.6338    5.1294 N.am      11 UNK        -0.4279 
     65 CA         35.0930   28.3555    4.9496 C.3       11 UNK         0.1003 
     66 C          36.5647   28.3631    5.4701 C.2       11 UNK         0.5709 
     67 N          37.1739   29.5112    5.7487 N.am      11 UNK        -0.7358 
     68 O          37.1857   27.3097    5.5945 O.2       11 UNK        -0.4999 
     69 C69        34.2851   27.1160    5.4355 C.3       12 UNK        -0.0954 
     70 S70        32.6699   26.9426    4.6065 S.3       12 UNK        -0.2268 
     71 C71        31.6494   26.3059    5.9782 C.3       12 UNK         0.0203 
     72 H72        32.8742   21.7248    1.0807 H         1 UNK         0.0888 
     73 H73        33.1366   21.6625   -0.6641 H         1 UNK         0.0888 
     74 H74        33.6514   23.0773    0.2568 H         1 UNK         0.0888 
     75 H75        32.3111   24.7639   -0.0583 H         1 UNK         0.3017 
     76 H76        30.7584   26.1345   -0.4458 H         1 UNK         0.0873 
     77 H77        28.7739   26.2229    0.8374 H         1 UNK         0.0745 
     78 H78        30.0456   25.5864    1.8144 H         1 UNK         0.0745 
     79 H79        28.6025   22.2935    3.1193 H         1 UNK         0.0705 
     80 H80        30.1329   22.9265    2.5721 H         1 UNK         0.0705 
     81 H81        31.2366   24.5661    3.9056 H         1 UNK         0.1334 
     82 H82        29.1525   26.6220    7.0388 H         1 UNK         0.1417 
     83 H83        27.0536   23.8821    4.4866 H         1 UNK         0.1562 
     84 H84        26.7653   26.4902    7.2095 H         1 UNK         0.0748 
     85 H85        26.5342   24.7656    7.3460 H         1 UNK         0.0748 
     86 H86        26.0539   27.9004    5.3093 H         1 UNK         0.0940 
     87 H87        24.4773   27.7565    4.5793 H         1 UNK         0.0940 
     88 H88        27.0399   26.5226    3.4665 H         1 UNK         0.0703 
     89 H89        25.8147   25.2643    2.1872 H         1 UNK         0.3081 
     90 H90        24.1091   24.3034    1.2438 H         1 UNK         0.0719 
     91 H91        21.5811   25.9270    0.6653 H         1 UNK         0.0809 
     92 H92        21.7701   24.1786    0.5249 H         1 UNK         0.0809 
     93 H93        21.8384   24.9467    2.1014 H         1 UNK         0.0809 
     94 H94        23.2223   25.1978   -1.1498 H         1 UNK         0.2990 
     95 H95        24.4726   24.9566   -2.9502 H         1 UNK         0.0690 
     96 H96        25.9973   27.6183   -2.9372 H         1 UNK         0.0788 
     97 H97        24.2434   27.4765   -2.9018 H         1 UNK         0.0788 
     98 H98        25.1427   26.9043   -4.2987 H         1 UNK         0.0788 
     99 H99        27.3751   25.6137   -2.8812 H         1 UNK         0.2993 
    100 H100       28.3210   22.1771   -3.0269 H         1 UNK         0.0949 
    101 H101       29.9225   23.2961   -4.5490 H         1 UNK         0.0767 
    102 H102       28.3196   23.2387   -5.2645 H         1 UNK         0.0767 
    103 H103       28.9209   24.7447   -4.5927 H         1 UNK         0.0767 
    104 H104       29.4515   23.0006   -1.3234 H         1 UNK         0.3013 
    105 H105       26.7888   27.3651    0.8370 H         1 UNK         0.3121 
    106 H106       27.2186   30.2680    0.8437 H         1 UNK         0.0774 
    107 H107       27.8869   28.0841   -1.1956 H         1 UNK         0.0815 
    108 H108       26.4815   29.1510   -1.2172 H         1 UNK         0.0815 
    109 H109       28.0917   29.8108   -1.4586 H         1 UNK         0.0815 
    110 H110       28.4799   29.9465    2.8879 H         1 UNK         0.2987 
    111 H111       31.0852   28.7245    2.8515 H         1 UNK         0.0949 
    112 H112       31.1642   29.5914    5.1904 H         1 UNK         0.0806 
    113 H113       29.7033   30.5310    4.9122 H         1 UNK         0.0806 
    114 H114       29.6499   28.7684    4.8700 H         1 UNK         0.0806 
    115 H115       31.8760   29.8976    0.9434 H         1 UNK         0.3010 
    116 H116       32.6359   32.6013    0.8647 H         1 UNK         0.0829 
    117 H117       32.7749   31.0698   -1.0911 H         1 UNK         0.0813 
    118 H118       34.3377   31.8173   -0.7995 H         1 UNK         0.0813 
    119 H119       34.0630   30.1504   -0.3122 H         1 UNK         0.0813 
    120 H120       34.0226   33.7678    2.0285 H         1 UNK         0.3038 
    121 H121       35.3992   34.4422    3.6288 H         1 UNK         0.0769 
    122 H122       37.7037   33.5573    3.6629 H         1 UNK         0.0811 
    123 H123       37.1515   33.6740    2.0012 H         1 UNK         0.0811 
    124 H124       37.2072   32.1061    2.8061 H         1 UNK         0.0811 
    125 H125       33.2762   32.6378    4.4128 H         1 UNK         0.3204 
    126 H126       32.4075   31.5456    6.1037 H         1 UNK         0.0748 
    127 H127       33.2158   31.9102    8.3994 H         1 UNK         0.0771 
    128 H128       34.7752   32.4696    7.8145 H         1 UNK         0.0771 
    129 H129       33.3201   33.4166    7.5057 H         1 UNK         0.0771 
    130 H130       34.3209   30.1909    4.2849 H         1 UNK         0.2980 
    131 H131       35.2011   28.2533    3.8694 H         1 UNK         0.0545 
    132 H132       38.1277   29.4904    6.0717 H         1 UNK         0.3459 
    133 H133       36.6998   30.4021    5.6460 H         1 UNK         0.3459 
    134 H134       34.8377   26.1968    5.2350 H         1 UNK         0.0616 
    135 H135       34.1445   27.1504    6.5164 H         1 UNK         0.0616 
    136 H136       31.4617   27.1236    6.6758 H         1 UNK         0.0634 
    137 H137       32.2160   25.5504    6.5241 H         1 UNK         0.0634 
@<TRIPOS>BOND
     1    1    2 1    
     2    1   72 1    
     3    1   73 1    
     4    1   74 1    
     5    2    3 2    
     6    2    4 am   BACKBONE|DICT|INTERRES
     7    4    5 1    
     8    4   75 1    
     9    5    6 1    
    10    5   35 1    
    11    5   76 1    
    12    6    7 1    
    13    6   77 1    
    14    6   78 1    
    15    7    8 1    
    16    8    9 1    
    17    8   79 1    
    18    8   80 1    
    19    9   10 ar   
    20    9   14 ar   
    21   10   11 ar   
    22   10   81 1    
    23   11   12 ar   
    24   11   71 1    
    25   12   13 ar   
    26   12   82 1    
    27   13   14 ar   
    28   13   15 1    
    29   14   83 1    
    30   15   16 1    
    31   15   84 1    
    32   15   85 1    
    33   16   17 1    
    34   17   18 1    
    35   17   86 1    
    36   17   87 1    
    37   18   19 1    
    38   18   37 1    
    39   18   88 1    
    40   19   20 am   BACKBONE|DICT|INTERRES
    41   19   89 1    
    42   20   21 2    
    43   20   22 1    
    44   22   23 1    
    45   22   24 1    
    46   22   90 1    
    47   23   91 1    
    48   23   92 1    
    49   23   93 1    
    50   24   25 am   BACKBONE|DICT|INTERRES
    51   24   94 1    
    52   25   26 2    
    53   25   27 1    
    54   27   28 1    
    55   27   29 1    
    56   27   95 1    
    57   28   96 1    
    58   28   97 1    
    59   28   98 1    
    60   29   30 am   BACKBONE|DICT|INTERRES
    61   29   99 1    
    62   30   31 2    
    63   30   32 1    
    64   32   33 1    
    65   32   34 1    
    66   32  100 1    
    67   33  101 1    
    68   33  102 1    
    69   33  103 1    
    70   34   35 am   BACKBONE|DICT|INTERRES
    71   34  104 1    
    72   35   36 2    
    73   37   38 2    
    74   37   39 am   BACKBONE|DICT|INTERRES
    75   39   40 1    
    76   39  105 1    
    77   40   41 1    
    78   40   42 1    
    79   40  106 1    
    80   41  107 1    
    81   41  108 1    
    82   41  109 1    
    83   42   43 2    
    84   42   44 am   BACKBONE|DICT|INTERRES
    85   44   45 1    
    86   44  110 1    
    87   45   46 1    
    88   45   47 1    
    89   45  111 1    
    90   46  112 1    
    91   46  113 1    
    92   46  114 1    
    93   47   48 2    
    94   47   49 am   BACKBONE|DICT|INTERRES
    95   49   50 1    
    96   49  115 1    
    97   50   51 1    
    98   50   52 1    
    99   50  116 1    
   100   51  117 1    
   101   51  118 1    
   102   51  119 1    
   103   52   53 2    
   104   52   54 am   BACKBONE|DICT|INTERRES
   105   54   55 1    
   106   54  120 1    
   107   55   56 1    
   108   55   57 1    
   109   55  121 1    
   110   56  122 1    
   111   56  123 1    
   112   56  124 1    
   113   57   58 2    
   114   57   59 am   BACKBONE|DICT|INTERRES
   115   59   60 1    
   116   59  125 1    
   117   60   61 1    
   118   60   62 1    
   119   60  126 1    
   120   61  127 1    
   121   61  128 1    
   122   61  129 1    
   123   62   63 2    
   124   62   64 am   BACKBONE|DICT|INTERRES
   125   64   65 1    
   126   64  130 1    
   127   65   66 1    
   128   65   69 1    
   129   65  131 1    
   130   66   67 am   BACKBONE|DICT|INTERRES
   131   66   68 2    
   132   67  132 1    
   133   67  133 1    
   134   69   70 1    
   135   69  134 1    
   136   69  135 1    
   137   70   71 1    
   138   71  136 1    
   139   71  137 1    
@<TRIPOS>SUBSTRUCTURE
     1 UNK         1 GROUP             0       ****    0 ROOT    
