@<TRIPOS>MOLECULE
3R136
137   139    1
SMALL
USER_CHARGES


@<TRIPOS>ATOM
      1 CA         30.6227   18.1316    2.7712 C.3       0 UNK        -0.1979 
      2 C          29.5426   18.2325    1.7043 C.2       0 UNK         0.4864 
      3 O          28.7798   17.2847    1.5131 O.2       0 UNK        -0.5359 
      4 N          29.4690   19.3764    1.0107 N.am      1 UNK        -0.4318 
      5 CA         28.4949   19.6534   -0.0535 C.3       1 UNK         0.0824 
      6 C6         29.0071   20.7529   -1.0201 C.3       12 UNK        -0.0944 
      7 S7         29.2874   22.3759   -0.2257 S.3       12 UNK        -0.2672 
      8 C8         31.0693   22.6092   -0.4858 C.3       12 UNK         0.0333 
      9 C9         31.5211   23.9768    0.0038 C.ar      12 UNK        -0.0807 
     10 C10        31.8164   24.1776    1.3554 C.ar      12 UNK        -0.0894 
     11 C11        32.2710   25.4177    1.8156 C.ar      12 UNK        -0.0804 
     12 C12        32.4276   26.4638    0.8945 C.ar      12 UNK        -0.0824 
     13 C13        32.1264   26.2806   -0.4576 C.ar      12 UNK        -0.0762 
     14 C14        31.6672   25.0359   -0.8968 C.ar      12 UNK        -0.0782 
     15 C15        32.3415   27.4135   -1.4523 C.3       12 UNK         0.0230 
     16 S16        30.8152   28.3499   -1.7826 S.3       12 UNK        -0.2608 
     17 C17        30.6198   29.3326   -0.2559 C.3       12 UNK        -0.0989 
     18 CA         29.2777   29.0427    0.4572 C.3       5 UNK         0.0716 
     19 N          29.1557   27.6357    0.8431 N.am      5 UNK        -0.4135 
     20 C          28.0241   27.0445    1.2417 C.2       4 UNK         0.5031 
     21 O          26.9393   27.6233    1.3538 O.2       4 UNK        -0.5229 
     22 CA         28.1414   25.5518    1.5884 C.3       4 UNK         0.0329 
     23 CB         28.6099   25.3694    3.0399 C.3       4 UNK        -0.2001 
     24 N          26.8853   24.8243    1.4037 N.am      4 UNK        -0.4303 
     25 C          26.2680   24.6110    0.2346 C.2       3 UNK         0.5044 
     26 O          26.6991   25.0028   -0.8519 O.2       3 UNK        -0.5152 
     27 CA         24.9664   23.7851    0.2997 C.3       3 UNK         0.0319 
     28 CB         24.2959   23.6210   -1.0770 C.3       3 UNK        -0.2001 
     29 N          25.2134   22.4556    0.8616 N.am      3 UNK        -0.4354 
     30 C          25.3502   22.1630    2.1603 C.2       2 UNK         0.4964 
     31 O          25.2093   22.9927    3.0596 O.2       2 UNK        -0.5047 
     32 CA         25.7679   20.7262    2.5201 C.3       2 UNK         0.0288 
     33 CB         24.5852   19.7432    2.4089 C.3       2 UNK        -0.2113 
     34 N          26.9518   20.2615    1.7804 N.am      2 UNK        -0.4145 
     35 C          27.0779   19.9810    0.4725 C.2       1 UNK         0.5006 
     36 O          26.1393   20.0151   -0.3263 O.2       1 UNK        -0.5103 
     37 C          29.0708   29.9916    1.6573 C.2       5 UNK         0.5055 
     38 O          29.3805   29.6345    2.7984 O.2       5 UNK        -0.5220 
     39 N          28.5568   31.1908    1.3516 N.am      6 UNK        -0.4450 
     40 CA         28.2275   32.2624    2.2948 C.3       6 UNK         0.0367 
     41 CB         27.2643   33.2425    1.5949 C.3       6 UNK        -0.1929 
     42 C          29.4708   32.9737    2.8685 C.2       6 UNK         0.5070 
     43 O          30.5878   32.4662    2.7554 O.2       6 UNK        -0.5237 
     44 N          29.2553   34.1503    3.4756 N.am      7 UNK        -0.4739 
     45 CA         30.2120   34.9691    4.2396 C.3       7 UNK         0.0276 
     46 CB         29.5115   36.2690    4.6686 C.3       7 UNK        -0.1927 
     47 C          31.5637   35.2929    3.5701 C.2       7 UNK         0.5013 
     48 O          32.5066   35.6397    4.2817 O.2       7 UNK        -0.5193 
     49 N          31.6547   35.1561    2.2397 N.am      8 UNK        -0.4253 
     50 CA         32.9087   35.2037    1.4806 C.3       8 UNK         0.0242 
     51 CB         32.5934   35.1855   -0.0239 C.3       8 UNK        -0.2000 
     52 C          33.8766   34.0586    1.8438 C.2       8 UNK         0.4948 
     53 O          35.0899   34.2697    1.8237 O.2       8 UNK        -0.5275 
     54 N          33.3237   32.8859    2.1828 N.am      9 UNK        -0.4246 
     55 CA         34.0462   31.7313    2.7207 C.3       9 UNK         0.0261 
     56 CB         33.6266   30.4688    1.9515 C.3       9 UNK        -0.1959 
     57 C          33.7543   31.5568    4.2202 C.2       9 UNK         0.5033 
     58 O          34.6596   31.1935    4.9704 O.2       9 UNK        -0.5390 
     59 N          32.4976   31.8092    4.6206 N.am      10 UNK        -0.4215 
     60 CA         31.9271   31.7689    5.9748 C.3       10 UNK         0.0240 
     61 CB         32.6582   32.7465    6.9181 C.3       10 UNK        -0.1982 
     62 C          31.7875   30.3641    6.5937 C.2       10 UNK         0.4970 
     63 O          31.2753   30.2569    7.7090 O.2       10 UNK        -0.4916 
     64 N          32.2095   29.3174    5.8766 N.am      11 UNK        -0.4279 
     65 CA         32.0859   27.9101    6.2808 C.3       11 UNK         0.1003 
     66 C          30.6650   27.3022    6.0984 C.2       11 UNK         0.5709 
     67 N          29.7609   27.9173    5.3448 N.am      11 UNK        -0.7358 
     68 O          30.3727   26.2550    6.6703 O.2       11 UNK        -0.4999 
     69 C69        33.1929   27.0355    5.6354 C.3       12 UNK        -0.0954 
     70 S70        33.2632   27.1761    3.8182 S.3       12 UNK        -0.2268 
     71 C71        32.5819   25.5624    3.3081 C.3       12 UNK         0.0203 
     72 H72        30.1712   17.9548    3.7470 H         1 UNK         0.0888 
     73 H73        31.2917   17.3005    2.5495 H         1 UNK         0.0888 
     74 H74        31.2211   19.0404    2.8339 H         1 UNK         0.0888 
     75 H75        30.1177   20.1251    1.2088 H         1 UNK         0.3017 
     76 H76        28.3858   18.7398   -0.6425 H         1 UNK         0.0873 
     77 H77        29.9303   20.4153   -1.4934 H         1 UNK         0.0745 
     78 H78        28.3015   20.8963   -1.8408 H         1 UNK         0.0745 
     79 H79        31.2979   22.4948   -1.5467 H         1 UNK         0.0705 
     80 H80        31.6205   21.8255    0.0359 H         1 UNK         0.0705 
     81 H81        31.6972   23.3590    2.0524 H         1 UNK         0.1334 
     82 H82        32.7970   27.4266    1.2137 H         1 UNK         0.1417 
     83 H83        31.4392   24.8878   -1.9440 H         1 UNK         0.1562 
     84 H84        32.7068   27.0029   -2.3949 H         1 UNK         0.0748 
     85 H85        33.1202   28.0934   -1.1023 H         1 UNK         0.0748 
     86 H86        30.6880   30.3860   -0.5354 H         1 UNK         0.0940 
     87 H87        31.4568   29.1493    0.4156 H         1 UNK         0.0940 
     88 H88        28.4729   29.2404   -0.2548 H         1 UNK         0.0703 
     89 H89        30.0031   27.0889    0.7908 H         1 UNK         0.3081 
     90 H90        28.8842   25.1084    0.9229 H         1 UNK         0.0719 
     91 H91        29.5192   25.9393    3.2291 H         1 UNK         0.0809 
     92 H92        27.8590   25.7128    3.7522 H         1 UNK         0.0809 
     93 H93        28.8306   24.3241    3.2572 H         1 UNK         0.0809 
     94 H94        26.4412   24.4569    2.2372 H         1 UNK         0.2990 
     95 H95        24.2710   24.3226    0.9479 H         1 UNK         0.0690 
     96 H96        23.3543   23.0776   -0.9967 H         1 UNK         0.0788 
     97 H97        24.9365   23.0803   -1.7752 H         1 UNK         0.0788 
     98 H98        24.0721   24.5917   -1.5213 H         1 UNK         0.0788 
     99 H99        25.3991   21.7061    0.2006 H         1 UNK         0.2993 
    100 H100       26.0700   20.7466    3.5687 H         1 UNK         0.0949 
    101 H101       23.7666   20.0490    3.0618 H         1 UNK         0.0767 
    102 H102       24.1849   19.6895    1.3963 H         1 UNK         0.0767 
    103 H103       24.8788   18.7366    2.7069 H         1 UNK         0.0767 
    104 H104       27.8021   20.2273    2.3245 H         1 UNK         0.3013 
    105 H105       28.3757   31.3949    0.3797 H         1 UNK         0.3121 
    106 H106       27.7037   31.8110    3.1399 H         1 UNK         0.0774 
    107 H107       27.7609   33.7982    0.7982 H         1 UNK         0.0815 
    108 H108       26.4168   32.7166    1.1543 H         1 UNK         0.0815 
    109 H109       26.8461   33.9686    2.2927 H         1 UNK         0.0815 
    110 H110       28.3037   34.4886    3.4859 H         1 UNK         0.2987 
    111 H111       30.4509   34.4070    5.1438 H         1 UNK         0.0949 
    112 H112       28.6292   36.0654    5.2758 H         1 UNK         0.0806 
    113 H113       30.1743   36.8939    5.2694 H         1 UNK         0.0806 
    114 H114       29.1992   36.8607    3.8072 H         1 UNK         0.0806 
    115 H115       30.8259   34.8695    1.7397 H         1 UNK         0.3010 
    116 H116       33.4081   36.1458    1.7170 H         1 UNK         0.0829 
    117 H117       32.0733   34.2727   -0.3176 H         1 UNK         0.0813 
    118 H118       33.5091   35.2428   -0.6141 H         1 UNK         0.0813 
    119 H119       31.9721   36.0343   -0.3100 H         1 UNK         0.0813 
    120 H120       32.3084   32.8210    2.1892 H         1 UNK         0.3038 
    121 H121       35.1229   31.8662    2.5984 H         1 UNK         0.0769 
    122 H122       33.7736   30.5882    0.8780 H         1 UNK         0.0811 
    123 H123       32.5779   30.2251    2.1249 H         1 UNK         0.0811 
    124 H124       34.2200   29.6098    2.2659 H         1 UNK         0.0811 
    125 H125       31.8161   32.0346    3.8945 H         1 UNK         0.3204 
    126 H126       30.9044   32.1308    5.8628 H         1 UNK         0.0748 
    127 H127       33.6744   32.4170    7.1358 H         1 UNK         0.0771 
    128 H128       32.7151   33.7463    6.4873 H         1 UNK         0.0771 
    129 H129       32.1365   32.8353    7.8718 H         1 UNK         0.0771 
    130 H130       32.6227   29.4793    4.9710 H         1 UNK         0.2980 
    131 H131       32.2665   27.8743    7.3570 H         1 UNK         0.0545 
    132 H132       29.9894   28.7411    4.8061 H         1 UNK         0.3459 
    133 H133       28.8436   27.5130    5.2610 H         1 UNK         0.3459 
    134 H134       33.0888   25.9891    5.9286 H         1 UNK         0.0616 
    135 H135       34.1646   27.3487    6.0198 H         1 UNK         0.0616 
    136 H136       33.2944   24.7882    3.5962 H         1 UNK         0.0634 
    137 H137       31.6715   25.3714    3.8762 H         1 UNK         0.0634 
@<TRIPOS>BOND
     1    1    2 1    
     2    1   72 1    
     3    1   73 1    
     4    1   74 1    
     5    2    3 2    
     6    2    4 am   BACKBONE|DICT|INTERRES
     7    4    5 1    
     8    4   75 1    
     9    5    6 1    
    10    5   35 1    
    11    5   76 1    
    12    6    7 1    
    13    6   77 1    
    14    6   78 1    
    15    7    8 1    
    16    8    9 1    
    17    8   79 1    
    18    8   80 1    
    19    9   10 ar   
    20    9   14 ar   
    21   10   11 ar   
    22   10   81 1    
    23   11   12 ar   
    24   11   71 1    
    25   12   13 ar   
    26   12   82 1    
    27   13   14 ar   
    28   13   15 1    
    29   14   83 1    
    30   15   16 1    
    31   15   84 1    
    32   15   85 1    
    33   16   17 1    
    34   17   18 1    
    35   17   86 1    
    36   17   87 1    
    37   18   19 1    
    38   18   37 1    
    39   18   88 1    
    40   19   20 am   BACKBONE|DICT|INTERRES
    41   19   89 1    
    42   20   21 2    
    43   20   22 1    
    44   22   23 1    
    45   22   24 1    
    46   22   90 1    
    47   23   91 1    
    48   23   92 1    
    49   23   93 1    
    50   24   25 am   BACKBONE|DICT|INTERRES
    51   24   94 1    
    52   25   26 2    
    53   25   27 1    
    54   27   28 1    
    55   27   29 1    
    56   27   95 1    
    57   28   96 1    
    58   28   97 1    
    59   28   98 1    
    60   29   30 am   BACKBONE|DICT|INTERRES
    61   29   99 1    
    62   30   31 2    
    63   30   32 1    
    64   32   33 1    
    65   32   34 1    
    66   32  100 1    
    67   33  101 1    
    68   33  102 1    
    69   33  103 1    
    70   34   35 am   BACKBONE|DICT|INTERRES
    71   34  104 1    
    72   35   36 2    
    73   37   38 2    
    74   37   39 am   BACKBONE|DICT|INTERRES
    75   39   40 1    
    76   39  105 1    
    77   40   41 1    
    78   40   42 1    
    79   40  106 1    
    80   41  107 1    
    81   41  108 1    
    82   41  109 1    
    83   42   43 2    
    84   42   44 am   BACKBONE|DICT|INTERRES
    85   44   45 1    
    86   44  110 1    
    87   45   46 1    
    88   45   47 1    
    89   45  111 1    
    90   46  112 1    
    91   46  113 1    
    92   46  114 1    
    93   47   48 2    
    94   47   49 am   BACKBONE|DICT|INTERRES
    95   49   50 1    
    96   49  115 1    
    97   50   51 1    
    98   50   52 1    
    99   50  116 1    
   100   51  117 1    
   101   51  118 1    
   102   51  119 1    
   103   52   53 2    
   104   52   54 am   BACKBONE|DICT|INTERRES
   105   54   55 1    
   106   54  120 1    
   107   55   56 1    
   108   55   57 1    
   109   55  121 1    
   110   56  122 1    
   111   56  123 1    
   112   56  124 1    
   113   57   58 2    
   114   57   59 am   BACKBONE|DICT|INTERRES
   115   59   60 1    
   116   59  125 1    
   117   60   61 1    
   118   60   62 1    
   119   60  126 1    
   120   61  127 1    
   121   61  128 1    
   122   61  129 1    
   123   62   63 2    
   124   62   64 am   BACKBONE|DICT|INTERRES
   125   64   65 1    
   126   64  130 1    
   127   65   66 1    
   128   65   69 1    
   129   65  131 1    
   130   66   67 am   BACKBONE|DICT|INTERRES
   131   66   68 2    
   132   67  132 1    
   133   67  133 1    
   134   69   70 1    
   135   69  134 1    
   136   69  135 1    
   137   70   71 1    
   138   71  136 1    
   139   71  137 1    
@<TRIPOS>SUBSTRUCTURE
     1 UNK         1 GROUP             0       ****    0 ROOT    
