@<TRIPOS>MOLECULE
3R136
137   139    1
SMALL
USER_CHARGES


@<TRIPOS>ATOM
      1 CA         28.6688   18.0310    2.7203 C.3       0 UNK        -0.1979 
      2 C          28.8863   19.1097    1.6696 C.2       0 UNK         0.4864 
      3 O          29.2856   18.7987    0.5468 O.2       0 UNK        -0.5359 
      4 N          28.6258   20.3752    2.0246 N.am      1 UNK        -0.4318 
      5 CA         28.7687   21.5412    1.1432 C.3       1 UNK         0.0824 
      6 C6         28.8367   22.8649    1.9493 C.3       12 UNK        -0.0944 
      7 S7         27.3528   23.1764    2.9742 S.3       12 UNK        -0.2672 
      8 C8         28.0904   23.7942    4.5176 C.3       12 UNK         0.0333 
      9 C9         28.6814   25.1852    4.3408 C.ar      12 UNK        -0.0807 
     10 C10        30.0658   25.3781    4.3613 C.ar      12 UNK        -0.0894 
     11 C11        30.6040   26.6623    4.2286 C.ar      12 UNK        -0.0804 
     12 C12        29.7492   27.7570    4.0654 C.ar      12 UNK        -0.0824 
     13 C13        28.3652   27.5707    4.0205 C.ar      12 UNK        -0.0762 
     14 C14        27.8370   26.2854    4.1703 C.ar      12 UNK        -0.0782 
     15 C15        27.4325   28.7505    3.8077 C.3       12 UNK         0.0230 
     16 S16        26.7848   28.7716    2.1074 S.3       12 UNK        -0.2608 
     17 C17        28.1916   29.4640    1.1731 C.3       12 UNK        -0.0989 
     18 CA         29.0183   28.4137    0.3836 C.3       5 UNK         0.0716 
     19 N          28.1737   27.5799   -0.4744 N.am      5 UNK        -0.4135 
     20 C          28.5866   26.5343   -1.2008 C.2       4 UNK         0.5031 
     21 O          29.7417   26.1041   -1.1930 O.2       4 UNK        -0.5229 
     22 CA         27.5072   25.8365   -2.0457 C.3       4 UNK         0.0329 
     23 CB         28.0986   24.8767   -3.0947 C.3       4 UNK        -0.2001 
     24 N          26.5882   25.1027   -1.1744 N.am      4 UNK        -0.4303 
     25 C          25.5372   25.6534   -0.5474 C.2       3 UNK         0.5044 
     26 O          25.2234   26.8365   -0.6924 O.2       3 UNK        -0.5152 
     27 CA         24.7200   24.7785    0.4281 C.3       3 UNK         0.0319 
     28 CB         23.2051   25.0610    0.3419 C.3       3 UNK        -0.2001 
     29 N          24.9980   23.3395    0.3415 N.am      3 UNK        -0.4354 
     30 C          24.7598   22.5075   -0.6858 C.2       2 UNK         0.4964 
     31 O          24.1817   22.8403   -1.7213 O.2       2 UNK        -0.5047 
     32 CA         25.2938   21.0649   -0.5294 C.3       2 UNK         0.0288 
     33 CB         25.4964   20.3534   -1.8845 C.3       2 UNK        -0.2113 
     34 N          26.5188   20.9884    0.2834 N.am      2 UNK        -0.4145 
     35 C          27.6797   21.6265    0.0523 C.2       1 UNK         0.5006 
     36 O          27.8869   22.3235   -0.9407 O.2       1 UNK        -0.5103 
     37 C          30.0932   29.1327   -0.4576 C.2       5 UNK         0.5055 
     38 O          29.7321   29.8724   -1.3769 O.2       5 UNK        -0.5220 
     39 N          31.3779   28.9373   -0.1276 N.am      6 UNK        -0.4450 
     40 CA         32.4870   29.6772   -0.7457 C.3       6 UNK         0.0367 
     41 CB         33.8085   28.9235   -0.5302 C.3       6 UNK        -0.1929 
     42 C          32.5912   31.1152   -0.2053 C.2       6 UNK         0.5070 
     43 O          33.0577   32.0027   -0.9196 O.2       6 UNK        -0.5237 
     44 N          32.1379   31.3171    1.0356 N.am      7 UNK        -0.4739 
     45 CA         32.0007   32.5968    1.7169 C.3       7 UNK         0.0276 
     46 CB         33.3313   32.9740    2.3925 C.3       7 UNK        -0.1927 
     47 C          30.8869   32.4394    2.7562 C.2       7 UNK         0.5013 
     48 O          30.6386   31.3200    3.2132 O.2       7 UNK        -0.5193 
     49 N          30.2656   33.5544    3.1582 N.am      8 UNK        -0.4253 
     50 CA         29.2447   33.6104    4.2132 C.3       8 UNK         0.0242 
     51 CB         28.3309   34.8248    3.9609 C.3       8 UNK        -0.2000 
     52 C          29.8804   33.6246    5.6205 C.2       8 UNK         0.4948 
     53 O          29.5519   34.4826    6.4421 O.2       8 UNK        -0.5275 
     54 N          30.8016   32.6864    5.8552 N.am      9 UNK        -0.4246 
     55 CA         31.6256   32.5045    7.0457 C.3       9 UNK         0.0261 
     56 CB         32.5933   33.6977    7.2388 C.3       9 UNK        -0.1959 
     57 C          32.3428   31.1546    6.8744 C.2       9 UNK         0.5033 
     58 O          31.7469   30.2237    6.3268 O.2       9 UNK        -0.5390 
     59 N          33.6063   31.0629    7.3082 N.am      10 UNK        -0.4215 
     60 CA         34.4887   29.9328    7.0186 C.3       10 UNK         0.0240 
     61 CB         35.7247   29.9995    7.9307 C.3       10 UNK        -0.1982 
     62 C          34.9022   29.9464    5.5371 C.2       10 UNK         0.4970 
     63 O          35.3013   30.9966    5.0285 O.2       10 UNK        -0.4916 
     64 N          34.8026   28.7853    4.8852 N.am      11 UNK        -0.4279 
     65 CA         35.1932   28.5729    3.4864 C.3       11 UNK         0.1003 
     66 C          36.7368   28.5497    3.3198 C.2       11 UNK         0.5709 
     67 N          37.2492   29.0535    2.2053 N.am      11 UNK        -0.7358 
     68 O          37.4679   28.0451    4.1708 O.2       11 UNK        -0.4999 
     69 C69        34.5538   27.2761    2.9249 C.3       12 UNK        -0.0954 
     70 S70        32.7530   27.4271    2.6737 S.3       12 UNK        -0.2268 
     71 C71        32.1078   26.8718    4.2800 C.3       12 UNK         0.0203 
     72 H72        27.9311   17.3094    2.3703 H         1 UNK         0.0888 
     73 H73        29.6011   17.5002    2.9110 H         1 UNK         0.0888 
     74 H74        28.3161   18.4459    3.6644 H         1 UNK         0.0888 
     75 H75        28.3031   20.5771    2.9608 H         1 UNK         0.3017 
     76 H76        29.7184   21.4352    0.6138 H         1 UNK         0.0873 
     77 H77        29.7193   22.8455    2.5901 H         1 UNK         0.0745 
     78 H78        28.9822   23.7189    1.2837 H         1 UNK         0.0745 
     79 H79        27.3171   23.8302    5.2863 H         1 UNK         0.0705 
     80 H80        28.8416   23.0878    4.8744 H         1 UNK         0.0705 
     81 H81        30.7239   24.5298    4.4911 H         1 UNK         0.1334 
     82 H82        30.1663   28.7508    3.9643 H         1 UNK         0.1417 
     83 H83        26.7656   26.1387    4.1400 H         1 UNK         0.1562 
     84 H84        27.9317   29.6948    4.0325 H         1 UNK         0.0748 
     85 H85        26.5945   28.6770    4.5024 H         1 UNK         0.0748 
     86 H86        28.8379   30.0143    1.8572 H         1 UNK         0.0940 
     87 H87        27.7787   30.2130    0.4938 H         1 UNK         0.0940 
     88 H88        29.5105   27.7512    1.0990 H         1 UNK         0.0703 
     89 H89        27.1904   27.8213   -0.5029 H         1 UNK         0.3081 
     90 H90        26.9565   26.6082   -2.5884 H         1 UNK         0.0719 
     91 H91        28.7298   25.4175   -3.8008 H         1 UNK         0.0809 
     92 H92        28.7159   24.1022   -2.6394 H         1 UNK         0.0809 
     93 H93        27.3143   24.3842   -3.6696 H         1 UNK         0.0809 
     94 H94        26.8215   24.1315   -0.9978 H         1 UNK         0.2990 
     95 H95        25.0480   25.0776    1.4249 H         1 UNK         0.0690 
     96 H96        22.6462   24.4509    1.0514 H         1 UNK         0.0788 
     97 H97        22.8111   24.8642   -0.6554 H         1 UNK         0.0788 
     98 H98        22.9879   26.1043    0.5741 H         1 UNK         0.0788 
     99 H99        25.4949   22.9593    1.1365 H         1 UNK         0.2993 
    100 H100       24.5243   20.5190    0.0187 H         1 UNK         0.0949 
    101 H101       26.2053   20.8860   -2.5195 H         1 UNK         0.0767 
    102 H102       25.8674   19.3377   -1.7470 H         1 UNK         0.0767 
    103 H103       24.5572   20.2822   -2.4346 H         1 UNK         0.0767 
    104 H104       26.4468   20.4553    1.1389 H         1 UNK         0.3013 
    105 H105       31.6118   28.2974    0.6207 H         1 UNK         0.3121 
    106 H106       32.3077   29.7368   -1.8216 H         1 UNK         0.0774 
    107 H107       34.1100   28.9289    0.5159 H         1 UNK         0.0815 
    108 H108       33.7375   27.8864   -0.8585 H         1 UNK         0.0815 
    109 H109       34.6143   29.3896   -1.0986 H         1 UNK         0.0815 
    110 H110       31.7408   30.5420    1.5525 H         1 UNK         0.2987 
    111 H111       31.7108   33.3658    0.9973 H         1 UNK         0.0949 
    112 H112       34.1332   33.0771    1.6614 H         1 UNK         0.0806 
    113 H113       33.2501   33.9251    2.9201 H         1 UNK         0.0806 
    114 H114       33.6388   32.2219    3.1207 H         1 UNK         0.0806 
    115 H115       30.5543   34.4406    2.7683 H         1 UNK         0.3010 
    116 H116       28.6240   32.7133    4.1541 H         1 UNK         0.0829 
    117 H117       28.8807   35.7647    4.0243 H         1 UNK         0.0813 
    118 H118       27.5253   34.8676    4.6953 H         1 UNK         0.0813 
    119 H119       27.8650   34.7732    2.9767 H         1 UNK         0.0813 
    120 H120       30.9390   31.9699    5.1454 H         1 UNK         0.3038 
    121 H121       30.9691   32.4251    7.9140 H         1 UNK         0.0769 
    122 H122       32.0571   34.6433    7.3138 H         1 UNK         0.0811 
    123 H123       33.2963   33.7851    6.4089 H         1 UNK         0.0811 
    124 H124       33.1688   33.6013    8.1599 H         1 UNK         0.0811 
    125 H125       34.0379   31.8830    7.7082 H         1 UNK         0.3204 
    126 H126       33.9492   29.0081    7.2362 H         1 UNK         0.0748 
    127 H127       36.3016   30.9106    7.7655 H         1 UNK         0.0771 
    128 H128       35.4438   29.9656    8.9836 H         1 UNK         0.0771 
    129 H129       36.3905   29.1552    7.7460 H         1 UNK         0.0771 
    130 H130       34.5109   27.9631    5.3899 H         1 UNK         0.2980 
    131 H131       34.8137   29.4177    2.9072 H         1 UNK         0.0545 
    132 H132       38.2485   29.0323    2.0752 H         1 UNK         0.3459 
    133 H133       36.6620   29.4635    1.4967 H         1 UNK         0.3459 
    134 H134       34.7715   26.4198    3.5657 H         1 UNK         0.0616 
    135 H135       34.9806   27.0327    1.9500 H         1 UNK         0.0616 
    136 H136       32.3315   27.6185    5.0424 H         1 UNK         0.0634 
    137 H137       32.6144   25.9525    4.5777 H         1 UNK         0.0634 
@<TRIPOS>BOND
     1    1    2 1    
     2    1   72 1    
     3    1   73 1    
     4    1   74 1    
     5    2    3 2    
     6    2    4 am   BACKBONE|DICT|INTERRES
     7    4    5 1    
     8    4   75 1    
     9    5    6 1    
    10    5   35 1    
    11    5   76 1    
    12    6    7 1    
    13    6   77 1    
    14    6   78 1    
    15    7    8 1    
    16    8    9 1    
    17    8   79 1    
    18    8   80 1    
    19    9   10 ar   
    20    9   14 ar   
    21   10   11 ar   
    22   10   81 1    
    23   11   12 ar   
    24   11   71 1    
    25   12   13 ar   
    26   12   82 1    
    27   13   14 ar   
    28   13   15 1    
    29   14   83 1    
    30   15   16 1    
    31   15   84 1    
    32   15   85 1    
    33   16   17 1    
    34   17   18 1    
    35   17   86 1    
    36   17   87 1    
    37   18   19 1    
    38   18   37 1    
    39   18   88 1    
    40   19   20 am   BACKBONE|DICT|INTERRES
    41   19   89 1    
    42   20   21 2    
    43   20   22 1    
    44   22   23 1    
    45   22   24 1    
    46   22   90 1    
    47   23   91 1    
    48   23   92 1    
    49   23   93 1    
    50   24   25 am   BACKBONE|DICT|INTERRES
    51   24   94 1    
    52   25   26 2    
    53   25   27 1    
    54   27   28 1    
    55   27   29 1    
    56   27   95 1    
    57   28   96 1    
    58   28   97 1    
    59   28   98 1    
    60   29   30 am   BACKBONE|DICT|INTERRES
    61   29   99 1    
    62   30   31 2    
    63   30   32 1    
    64   32   33 1    
    65   32   34 1    
    66   32  100 1    
    67   33  101 1    
    68   33  102 1    
    69   33  103 1    
    70   34   35 am   BACKBONE|DICT|INTERRES
    71   34  104 1    
    72   35   36 2    
    73   37   38 2    
    74   37   39 am   BACKBONE|DICT|INTERRES
    75   39   40 1    
    76   39  105 1    
    77   40   41 1    
    78   40   42 1    
    79   40  106 1    
    80   41  107 1    
    81   41  108 1    
    82   41  109 1    
    83   42   43 2    
    84   42   44 am   BACKBONE|DICT|INTERRES
    85   44   45 1    
    86   44  110 1    
    87   45   46 1    
    88   45   47 1    
    89   45  111 1    
    90   46  112 1    
    91   46  113 1    
    92   46  114 1    
    93   47   48 2    
    94   47   49 am   BACKBONE|DICT|INTERRES
    95   49   50 1    
    96   49  115 1    
    97   50   51 1    
    98   50   52 1    
    99   50  116 1    
   100   51  117 1    
   101   51  118 1    
   102   51  119 1    
   103   52   53 2    
   104   52   54 am   BACKBONE|DICT|INTERRES
   105   54   55 1    
   106   54  120 1    
   107   55   56 1    
   108   55   57 1    
   109   55  121 1    
   110   56  122 1    
   111   56  123 1    
   112   56  124 1    
   113   57   58 2    
   114   57   59 am   BACKBONE|DICT|INTERRES
   115   59   60 1    
   116   59  125 1    
   117   60   61 1    
   118   60   62 1    
   119   60  126 1    
   120   61  127 1    
   121   61  128 1    
   122   61  129 1    
   123   62   63 2    
   124   62   64 am   BACKBONE|DICT|INTERRES
   125   64   65 1    
   126   64  130 1    
   127   65   66 1    
   128   65   69 1    
   129   65  131 1    
   130   66   67 am   BACKBONE|DICT|INTERRES
   131   66   68 2    
   132   67  132 1    
   133   67  133 1    
   134   69   70 1    
   135   69  134 1    
   136   69  135 1    
   137   70   71 1    
   138   71  136 1    
   139   71  137 1    
@<TRIPOS>SUBSTRUCTURE
     1 UNK         1 GROUP             0       ****    0 ROOT    
