@<TRIPOS>MOLECULE
3R136
137   139    1
SMALL
USER_CHARGES


@<TRIPOS>ATOM
      1 CA         27.7236   22.9322    0.9179 C.3       0 UNK        -0.1979 
      2 C          28.9406   22.6426    0.0521 C.2       0 UNK         0.4864 
      3 O          29.4258   21.5103    0.0293 O.2       0 UNK        -0.5359 
      4 N          29.4342   23.6637   -0.6529 N.am      1 UNK        -0.4318 
      5 CA         30.6223   23.6075   -1.5067 C.3       1 UNK         0.0824 
      6 C6         31.9658   23.4859   -0.7261 C.3       12 UNK        -0.0944 
      7 S7         32.1394   24.6511    0.6752 S.3       12 UNK        -0.2672 
      8 C8         32.0616   23.5274    2.1104 C.3       12 UNK         0.0333 
      9 C9         31.2150   24.0929    3.2428 C.ar      12 UNK        -0.0807 
     10 C10        31.5273   25.3307    3.8097 C.ar      12 UNK        -0.0894 
     11 C11        30.7711   25.8439    4.8651 C.ar      12 UNK        -0.0804 
     12 C12        29.7048   25.0985    5.3759 C.ar      12 UNK        -0.0824 
     13 C13        29.3765   23.8594    4.8148 C.ar      12 UNK        -0.0762 
     14 C14        30.1327   23.3648    3.7469 C.ar      12 UNK        -0.0782 
     15 C15        28.2181   23.0406    5.3660 C.3       12 UNK         0.0230 
     16 S16        26.6605   23.3943    4.4908 S.3       12 UNK        -0.2608 
     17 C17        26.1357   24.9543    5.2787 C.3       12 UNK        -0.0989 
     18 CA         26.4295   26.2016    4.4084 C.3       5 UNK         0.0716 
     19 N          25.7831   26.1115    3.0892 N.am      5 UNK        -0.4135 
     20 C          25.9477   26.9677    2.0727 C.2       4 UNK         0.5031 
     21 O          26.5657   28.0306    2.1644 O.2       4 UNK        -0.5229 
     22 CA         25.2510   26.6011    0.7496 C.3       4 UNK         0.0329 
     23 CB         23.7673   27.0026    0.7973 C.3       4 UNK        -0.2001 
     24 N          25.8867   27.2707   -0.3873 N.am      4 UNK        -0.4303 
     25 C          27.1202   26.9939   -0.8253 C.2       3 UNK         0.5044 
     26 O          27.7837   26.0231   -0.4409 O.2       3 UNK        -0.5152 
     27 CA         27.7294   27.9779   -1.8373 C.3       3 UNK         0.0319 
     28 CB         27.5824   29.4483   -1.3974 C.3       3 UNK        -0.2001 
     29 N          29.1362   27.6265   -1.9601 N.am      3 UNK        -0.4354 
     30 C          29.9439   27.8445   -2.9999 C.2       2 UNK         0.4964 
     31 O          29.6520   28.5424   -3.9712 O.2       2 UNK        -0.5047 
     32 CA         31.3081   27.1298   -2.9499 C.3       2 UNK         0.0288 
     33 CB         32.3790   28.0567   -2.3488 C.3       2 UNK        -0.2113 
     34 N          31.2808   25.8744   -2.1864 N.am      2 UNK        -0.4145 
     35 C          30.5604   24.7848   -2.4933 C.2       1 UNK         0.5006 
     36 O          29.8511   24.6922   -3.4968 O.2       1 UNK        -0.5103 
     37 C          26.1216   27.4888    5.2095 C.2       5 UNK         0.5055 
     38 O          26.8347   27.7764    6.1719 O.2       5 UNK        -0.5220 
     39 N          25.0837   28.2403    4.8140 N.am      6 UNK        -0.4450 
     40 CA         24.7657   29.5724    5.3357 C.3       6 UNK         0.0367 
     41 CB         23.3536   29.9657    4.8716 C.3       6 UNK        -0.1929 
     42 C          25.7876   30.6530    4.9230 C.2       6 UNK         0.5070 
     43 O          25.8484   31.6956    5.5761 O.2       6 UNK        -0.5237 
     44 N          26.5586   30.3983    3.8590 N.am      7 UNK        -0.4739 
     45 CA         27.6397   31.2435    3.3638 C.3       7 UNK         0.0276 
     46 CB         27.1447   32.0242    2.1269 C.3       7 UNK        -0.1927 
     47 C          28.8602   30.3400    3.1162 C.2       7 UNK         0.5013 
     48 O          29.3044   29.6878    4.0607 O.2       7 UNK        -0.5193 
     49 N          29.3479   30.3120    1.8663 N.am      8 UNK        -0.4253 
     50 CA         30.4701   29.5376    1.3226 C.3       8 UNK         0.0242 
     51 CB         30.2844   28.0222    1.5336 C.3       8 UNK        -0.2000 
     52 C          31.8347   30.0351    1.8309 C.2       8 UNK         0.4948 
     53 O          32.1589   29.8965    3.0111 O.2       8 UNK        -0.5275 
     54 N          32.6341   30.5793    0.9023 N.am      9 UNK        -0.4246 
     55 CA         33.9413   31.2093    1.1378 C.3       9 UNK         0.0261 
     56 CB         34.4364   31.8205   -0.1846 C.3       9 UNK        -0.1959 
     57 C          35.0296   30.3042    1.7510 C.2       9 UNK         0.5033 
     58 O          36.0605   30.8225    2.1827 O.2       9 UNK        -0.5390 
     59 N          34.7989   28.9847    1.7824 N.am      10 UNK        -0.4215 
     60 CA         35.6539   28.0042    2.4516 C.3       10 UNK         0.0240 
     61 CB         35.2443   26.5884    2.0161 C.3       10 UNK        -0.1982 
     62 C          35.6500   28.1343    3.9880 C.2       10 UNK         0.4970 
     63 O          36.6532   27.7769    4.6074 O.2       10 UNK        -0.4916 
     64 N          34.5573   28.6453    4.5756 N.am      11 UNK        -0.4279 
     65 CA         34.4906   28.9931    6.0031 C.3       11 UNK         0.1003 
     66 C          35.0525   30.4187    6.2401 C.2       11 UNK         0.5709 
     67 N          35.8525   30.6078    7.2809 N.am      11 UNK        -0.7358 
     68 O          34.7382   31.3616    5.5164 O.2       11 UNK        -0.4999 
     69 C69        33.0567   28.8630    6.5773 C.3       12 UNK        -0.0954 
     70 S70        32.4875   27.1304    6.5997 S.3       12 UNK        -0.2268 
     71 C71        31.1062   27.2150    5.4259 C.3       12 UNK         0.0203 
     72 H72        26.8137   22.8884    0.3204 H         1 UNK         0.0888 
     73 H73        27.6418   22.2018    1.7224 H         1 UNK         0.0888 
     74 H74        27.7929   23.9212    1.3720 H         1 UNK         0.0888 
     75 H75        28.9513   24.5601   -0.6182 H         1 UNK         0.3017 
     76 H76        30.5323   22.7124   -2.1264 H         1 UNK         0.0873 
     77 H77        32.8149   23.6247   -1.3982 H         1 UNK         0.0745 
     78 H78        32.0728   22.4632   -0.3638 H         1 UNK         0.0745 
     79 H79        31.6685   22.5560    1.8087 H         1 UNK         0.0705 
     80 H80        33.0744   23.3485    2.4736 H         1 UNK         0.0705 
     81 H81        32.3568   25.9045    3.4249 H         1 UNK         0.1334 
     82 H82        29.1227   25.4911    6.1986 H         1 UNK         0.1417 
     83 H83        29.8816   22.4052    3.3153 H         1 UNK         0.1562 
     84 H84        28.0982   23.2134    6.4365 H         1 UNK         0.0748 
     85 H85        28.4398   21.9775    5.2602 H         1 UNK         0.0748 
     86 H86        26.6188   25.0379    6.2542 H         1 UNK         0.0940 
     87 H87        25.0663   24.8828    5.4864 H         1 UNK         0.0940 
     88 H88        27.5019   26.2332    4.2094 H         1 UNK         0.0703 
     89 H89        25.2461   25.2709    2.9313 H         1 UNK         0.3081 
     90 H90        25.3253   25.5215    0.6009 H         1 UNK         0.0719 
     91 H91        23.2563   26.7412   -0.1297 H         1 UNK         0.0809 
     92 H92        23.6435   28.0747    0.9573 H         1 UNK         0.0809 
     93 H93        23.2448   26.4897    1.6059 H         1 UNK         0.0809 
     94 H94        25.4282   28.1004   -0.7329 H         1 UNK         0.2990 
     95 H95        27.2377   27.8263   -2.8002 H         1 UNK         0.0690 
     96 H96        28.1688   30.1173   -2.0275 H         1 UNK         0.0788 
     97 H97        27.9053   29.5876   -0.3668 H         1 UNK         0.0788 
     98 H98        26.5458   29.7795   -1.4616 H         1 UNK         0.0788 
     99 H99        29.4430   26.9859   -1.2392 H         1 UNK         0.2993 
    100 H100       31.5893   26.8909   -3.9778 H         1 UNK         0.0949 
    101 H101       33.3682   27.6005   -2.3940 H         1 UNK         0.0767 
    102 H102       32.4333   28.9986   -2.8969 H         1 UNK         0.0767 
    103 H103       32.1675   28.2954   -1.3063 H         1 UNK         0.0767 
    104 H104       31.8283   25.8406   -1.3353 H         1 UNK         0.3013 
    105 H105       24.5488   27.9263    4.0182 H         1 UNK         0.3121 
    106 H106       24.7675   29.5204    6.4266 H         1 UNK         0.0774 
    107 H107       23.0705   30.9411    5.2699 H         1 UNK         0.0815 
    108 H108       23.2883   30.0272    3.7845 H         1 UNK         0.0815 
    109 H109       22.6074   29.2492    5.2152 H         1 UNK         0.0815 
    110 H110       26.4805   29.4947    3.3959 H         1 UNK         0.2987 
    111 H111       27.9400   31.9614    4.1303 H         1 UNK         0.0949 
    112 H112       26.8168   31.3584    1.3271 H         1 UNK         0.0806 
    113 H113       26.2985   32.6609    2.3859 H         1 UNK         0.0806 
    114 H114       27.9211   32.6798    1.7304 H         1 UNK         0.0806 
    115 H115       28.8957   30.9228    1.2018 H         1 UNK         0.3010 
    116 H116       30.4342   29.7039    0.2447 H         1 UNK         0.0829 
    117 H117       29.3314   27.6806    1.1326 H         1 UNK         0.0813 
    118 H118       31.0729   27.4566    1.0380 H         1 UNK         0.0813 
    119 H119       30.3043   27.7501    2.5867 H         1 UNK         0.0813 
    120 H120       32.2908   30.6397   -0.0454 H         1 UNK         0.3038 
    121 H121       33.7805   32.0219    1.8494 H         1 UNK         0.0769 
    122 H122       35.3886   32.3353   -0.0474 H         1 UNK         0.0811 
    123 H123       33.7308   32.5547   -0.5740 H         1 UNK         0.0811 
    124 H124       34.5870   31.0575   -0.9495 H         1 UNK         0.0811 
    125 H125       33.9253   28.6497    1.4056 H         1 UNK         0.3204 
    126 H126       36.6797   28.1741    2.1174 H         1 UNK         0.0748 
    127 H127       34.2079   26.3728    2.2691 H         1 UNK         0.0771 
    128 H128       35.3590   26.4547    0.9402 H         1 UNK         0.0771 
    129 H129       35.8633   25.8334    2.5029 H         1 UNK         0.0771 
    130 H130       33.7889   28.9798    4.0041 H         1 UNK         0.2980 
    131 H131       35.1190   28.2941    6.5594 H         1 UNK         0.0545 
    132 H132       36.1075   29.8449    7.8888 H         1 UNK         0.3459 
    133 H133       36.2138   31.5320    7.4587 H         1 UNK         0.3459 
    134 H134       32.3577   29.4888    6.0186 H         1 UNK         0.0616 
    135 H135       33.0253   29.2209    7.6081 H         1 UNK         0.0616 
    136 H136       30.2372   27.6603    5.9131 H         1 UNK         0.0634 
    137 H137       31.3750   27.8808    4.6063 H         1 UNK         0.0634 
@<TRIPOS>BOND
     1    1    2 1    
     2    1   72 1    
     3    1   73 1    
     4    1   74 1    
     5    2    3 2    
     6    2    4 am   BACKBONE|DICT|INTERRES
     7    4    5 1    
     8    4   75 1    
     9    5    6 1    
    10    5   35 1    
    11    5   76 1    
    12    6    7 1    
    13    6   77 1    
    14    6   78 1    
    15    7    8 1    
    16    8    9 1    
    17    8   79 1    
    18    8   80 1    
    19    9   10 ar   
    20    9   14 ar   
    21   10   11 ar   
    22   10   81 1    
    23   11   12 ar   
    24   11   71 1    
    25   12   13 ar   
    26   12   82 1    
    27   13   14 ar   
    28   13   15 1    
    29   14   83 1    
    30   15   16 1    
    31   15   84 1    
    32   15   85 1    
    33   16   17 1    
    34   17   18 1    
    35   17   86 1    
    36   17   87 1    
    37   18   19 1    
    38   18   37 1    
    39   18   88 1    
    40   19   20 am   BACKBONE|DICT|INTERRES
    41   19   89 1    
    42   20   21 2    
    43   20   22 1    
    44   22   23 1    
    45   22   24 1    
    46   22   90 1    
    47   23   91 1    
    48   23   92 1    
    49   23   93 1    
    50   24   25 am   BACKBONE|DICT|INTERRES
    51   24   94 1    
    52   25   26 2    
    53   25   27 1    
    54   27   28 1    
    55   27   29 1    
    56   27   95 1    
    57   28   96 1    
    58   28   97 1    
    59   28   98 1    
    60   29   30 am   BACKBONE|DICT|INTERRES
    61   29   99 1    
    62   30   31 2    
    63   30   32 1    
    64   32   33 1    
    65   32   34 1    
    66   32  100 1    
    67   33  101 1    
    68   33  102 1    
    69   33  103 1    
    70   34   35 am   BACKBONE|DICT|INTERRES
    71   34  104 1    
    72   35   36 2    
    73   37   38 2    
    74   37   39 am   BACKBONE|DICT|INTERRES
    75   39   40 1    
    76   39  105 1    
    77   40   41 1    
    78   40   42 1    
    79   40  106 1    
    80   41  107 1    
    81   41  108 1    
    82   41  109 1    
    83   42   43 2    
    84   42   44 am   BACKBONE|DICT|INTERRES
    85   44   45 1    
    86   44  110 1    
    87   45   46 1    
    88   45   47 1    
    89   45  111 1    
    90   46  112 1    
    91   46  113 1    
    92   46  114 1    
    93   47   48 2    
    94   47   49 am   BACKBONE|DICT|INTERRES
    95   49   50 1    
    96   49  115 1    
    97   50   51 1    
    98   50   52 1    
    99   50  116 1    
   100   51  117 1    
   101   51  118 1    
   102   51  119 1    
   103   52   53 2    
   104   52   54 am   BACKBONE|DICT|INTERRES
   105   54   55 1    
   106   54  120 1    
   107   55   56 1    
   108   55   57 1    
   109   55  121 1    
   110   56  122 1    
   111   56  123 1    
   112   56  124 1    
   113   57   58 2    
   114   57   59 am   BACKBONE|DICT|INTERRES
   115   59   60 1    
   116   59  125 1    
   117   60   61 1    
   118   60   62 1    
   119   60  126 1    
   120   61  127 1    
   121   61  128 1    
   122   61  129 1    
   123   62   63 2    
   124   62   64 am   BACKBONE|DICT|INTERRES
   125   64   65 1    
   126   64  130 1    
   127   65   66 1    
   128   65   69 1    
   129   65  131 1    
   130   66   67 am   BACKBONE|DICT|INTERRES
   131   66   68 2    
   132   67  132 1    
   133   67  133 1    
   134   69   70 1    
   135   69  134 1    
   136   69  135 1    
   137   70   71 1    
   138   71  136 1    
   139   71  137 1    
@<TRIPOS>SUBSTRUCTURE
     1 UNK         1 GROUP             0       ****    0 ROOT    
