@<TRIPOS>MOLECULE
3R136
137   139    1
SMALL
USER_CHARGES


@<TRIPOS>ATOM
      1 CA         27.0448   24.0094   -4.1497 C.3       0 UNK        -0.1979 
      2 C          27.8076   24.4310   -2.9038 C.2       0 UNK         0.4864 
      3 O          27.4686   25.4484   -2.2988 O.2       0 UNK        -0.5359 
      4 N          28.8234   23.6499   -2.5062 N.am      1 UNK        -0.4318 
      5 CA         29.6980   23.8950   -1.3503 C.3       1 UNK         0.0824 
      6 C6         30.8036   22.8119   -1.2541 C.3       12 UNK        -0.0944 
      7 S7         32.0762   23.1686    0.0068 S.3       12 UNK        -0.2672 
      8 C8         31.6441   21.9421    1.2806 C.3       12 UNK         0.0333 
      9 C9         31.9937   22.4417    2.6725 C.ar      12 UNK        -0.0807 
     10 C10        33.2783   22.2535    3.1914 C.ar      12 UNK        -0.0894 
     11 C11        33.5904   22.6860    4.4842 C.ar      12 UNK        -0.0804 
     12 C12        32.6032   23.3050    5.2579 C.ar      12 UNK        -0.0824 
     13 C13        31.3231   23.5213    4.7411 C.ar      12 UNK        -0.0762 
     14 C14        31.0218   23.0798    3.4494 C.ar      12 UNK        -0.0782 
     15 C15        30.2709   24.2207    5.5903 C.3       12 UNK         0.0230 
     16 S16        30.3625   26.0323    5.4201 S.3       12 UNK        -0.2608 
     17 C17        29.3702   26.2851    3.9113 C.3       12 UNK        -0.0989 
     18 CA         29.5290   27.6909    3.2807 C.3       5 UNK         0.0716 
     19 N          29.1247   27.6659    1.8696 N.am      5 UNK        -0.4135 
     20 C          29.0810   28.7110    1.0310 C.2       4 UNK         0.5031 
     21 O          29.4480   29.8491    1.3189 O.2       4 UNK        -0.5229 
     22 CA         28.4376   28.4714   -0.3447 C.3       4 UNK         0.0329 
     23 CB         29.5001   28.0354   -1.3634 C.3       4 UNK        -0.2001 
     24 N          27.3313   27.5051   -0.3320 N.am      4 UNK        -0.4303 
     25 C          26.2316   27.5831    0.4353 C.2       3 UNK         0.5044 
     26 O          26.0372   28.4660    1.2710 O.2       3 UNK        -0.5152 
     27 CA         25.1951   26.4631    0.2782 C.3       3 UNK         0.0319 
     28 CB         24.4123   26.6099   -1.0367 C.3       3 UNK        -0.2001 
     29 N          25.8355   25.1505    0.3407 N.am      3 UNK        -0.4354 
     30 C          26.2095   24.5527    1.4817 C.2       2 UNK         0.4964 
     31 O          25.9642   24.9981    2.6029 O.2       2 UNK        -0.5047 
     32 CA         27.0177   23.2479    1.3572 C.3       2 UNK         0.0288 
     33 CB         26.0794   22.0310    1.3260 C.3       2 UNK        -0.2113 
     34 N          27.9025   23.2094    0.1886 N.am      2 UNK        -0.4145 
     35 C          28.9155   24.0621   -0.0276 C.2       1 UNK         0.5006 
     36 O          29.2085   24.9786    0.7416 O.2       1 UNK        -0.5103 
     37 C          28.7991   28.7733    4.1141 C.2       5 UNK         0.5055 
     38 O          29.4080   29.3580    5.0115 O.2       5 UNK        -0.5220 
     39 N          27.5234   29.0356    3.7945 N.am      6 UNK        -0.4450 
     40 CA         26.7170   30.0889    4.4091 C.3       6 UNK         0.0367 
     41 CB         25.3206   29.5307    4.7302 C.3       6 UNK        -0.1929 
     42 C          26.6028   31.3184    3.4947 C.2       6 UNK         0.5070 
     43 O          26.6949   32.4440    3.9847 O.2       6 UNK        -0.5237 
     44 N          26.3662   31.0909    2.1955 N.am      7 UNK        -0.4739 
     45 CA         26.0331   32.1302    1.2191 C.3       7 UNK         0.0276 
     46 CB         25.3626   31.4771   -0.0010 C.3       7 UNK        -0.1927 
     47 C          27.2202   32.9988    0.7732 C.2       7 UNK         0.5013 
     48 O          26.9991   34.1616    0.4308 O.2       7 UNK        -0.5193 
     49 N          28.4342   32.4341    0.7544 N.am      8 UNK        -0.4253 
     50 CA         29.6528   33.1056    0.3054 C.3       8 UNK         0.0242 
     51 CB         30.2900   32.3208   -0.8577 C.3       8 UNK        -0.2000 
     52 C          30.6171   33.2823    1.4825 C.2       8 UNK         0.4948 
     53 O          30.8222   34.4149    1.9220 O.2       8 UNK        -0.5275 
     54 N          31.1889   32.1767    1.9742 N.am      9 UNK        -0.4246 
     55 CA         32.1747   32.1451    3.0532 C.3       9 UNK         0.0261 
     56 CB         33.5163   32.7505    2.5893 C.3       9 UNK        -0.1959 
     57 C          32.3830   30.6968    3.5039 C.2       9 UNK         0.5033 
     58 O          32.2763   29.7826    2.6836 O.2       9 UNK        -0.5390 
     59 N          32.7149   30.5267    4.7890 N.am      10 UNK        -0.4215 
     60 CA         33.0183   29.2407    5.4210 C.3       10 UNK         0.0240 
     61 CB         33.0228   29.4362    6.9479 C.3       10 UNK        -0.1982 
     62 C          34.3506   28.6326    4.9398 C.2       10 UNK         0.4970 
     63 O          35.1423   29.3086    4.2777 O.2       10 UNK        -0.4916 
     64 N          34.5650   27.3629    5.3079 N.am      11 UNK        -0.4279 
     65 CA         35.7462   26.5419    4.9935 C.3       11 UNK         0.1003 
     66 C          37.1063   27.2135    5.3402 C.2       11 UNK         0.5709 
     67 N          38.1123   27.0607    4.4897 N.am      11 UNK        -0.7358 
     68 O          37.2652   27.8278    6.3940 O.2       11 UNK        -0.4999 
     69 C69        35.6354   25.1472    5.6735 C.3       12 UNK        -0.0954 
     70 S70        36.1456   23.7870    4.5712 S.3       12 UNK        -0.2268 
     71 C71        34.9872   22.4634    5.0490 C.3       12 UNK         0.0203 
     72 H72        25.9934   23.8539   -3.9100 H         1 UNK         0.0888 
     73 H73        27.1096   24.7892   -4.9079 H         1 UNK         0.0888 
     74 H74        27.4368   23.0865   -4.5767 H         1 UNK         0.0888 
     75 H75        29.0442   22.8286   -3.0517 H         1 UNK         0.3017 
     76 H76        30.1929   24.8481   -1.5424 H         1 UNK         0.0873 
     77 H77        31.3228   22.7392   -2.2112 H         1 UNK         0.0745 
     78 H78        30.3683   21.8255   -1.0833 H         1 UNK         0.0745 
     79 H79        32.1655   21.0069    1.0708 H         1 UNK         0.0705 
     80 H80        30.5782   21.7130    1.2380 H         1 UNK         0.0705 
     81 H81        34.0347   21.7678    2.5898 H         1 UNK         0.1334 
     82 H82        32.8288   23.6266    6.2651 H         1 UNK         0.1417 
     83 H83        30.0307   23.2319    3.0454 H         1 UNK         0.1562 
     84 H84        30.4161   23.9615    6.6401 H         1 UNK         0.0748 
     85 H85        29.2701   23.8720    5.3302 H         1 UNK         0.0748 
     86 H86        28.3220   26.0584    4.1187 H         1 UNK         0.0940 
     87 H87        29.7009   25.5363    3.1940 H         1 UNK         0.0940 
     88 H88        30.5897   27.9416    3.2811 H         1 UNK         0.0703 
     89 H89        28.8763   26.7549    1.4942 H         1 UNK         0.3081 
     90 H90        28.0237   29.4241   -0.6791 H         1 UNK         0.0719 
     91 H91        29.0692   27.8932   -2.3546 H         1 UNK         0.0809 
     92 H92        30.2844   28.7880   -1.4542 H         1 UNK         0.0809 
     93 H93        29.9784   27.1029   -1.0663 H         1 UNK         0.0809 
     94 H94        27.3972   26.7374   -0.9992 H         1 UNK         0.2990 
     95 H95        24.4817   26.5485    1.1011 H         1 UNK         0.0690 
     96 H96        23.9151   27.5797   -1.0852 H         1 UNK         0.0788 
     97 H97        23.6397   25.8458   -1.1234 H         1 UNK         0.0788 
     98 H98        25.0582   26.5324   -1.9117 H         1 UNK         0.0788 
     99 H99        26.1306   24.7492   -0.5391 H         1 UNK         0.2993 
    100 H100       27.6448   23.1728    2.2480 H         1 UNK         0.0949 
    101 H101       25.4437   22.0328    0.4396 H         1 UNK         0.0767 
    102 H102       26.6407   21.0964    1.3365 H         1 UNK         0.0767 
    103 H103       25.4233   22.0222    2.1978 H         1 UNK         0.0767 
    104 H104       27.7162   22.4979   -0.5032 H         1 UNK         0.3013 
    105 H105       27.1065   28.5533    3.0052 H         1 UNK         0.3121 
    106 H106       27.1684   30.4155    5.3485 H         1 UNK         0.0774 
    107 H107       24.8087   29.1758    3.8345 H         1 UNK         0.0815 
    108 H108       24.6901   30.2951    5.1863 H         1 UNK         0.0815 
    109 H109       25.3803   28.6988    5.4321 H         1 UNK         0.0815 
    110 H110       26.2822   30.1283    1.8728 H         1 UNK         0.2987 
    111 H111       25.3036   32.7993    1.6813 H         1 UNK         0.0949 
    112 H112       26.0354   30.7883   -0.5118 H         1 UNK         0.0806 
    113 H113       24.4706   30.9204    0.2868 H         1 UNK         0.0806 
    114 H114       25.0540   32.2301   -0.7275 H         1 UNK         0.0806 
    115 H115       28.5504   31.4809    1.0911 H         1 UNK         0.3010 
    116 H116       29.4241   34.1053   -0.0703 H         1 UNK         0.0829 
    117 H117       29.6179   32.2781   -1.7149 H         1 UNK         0.0813 
    118 H118       31.2099   32.8021   -1.1921 H         1 UNK         0.0813 
    119 H119       30.5405   31.2962   -0.5848 H         1 UNK         0.0813 
    120 H120       30.9122   31.2616    1.6233 H         1 UNK         0.3038 
    121 H121       31.7829   32.7218    3.8939 H         1 UNK         0.0769 
    122 H122       33.9038   32.2338    1.7104 H         1 UNK         0.0811 
    123 H123       34.2732   32.6733    3.3710 H         1 UNK         0.0811 
    124 H124       33.4211   33.8075    2.3417 H         1 UNK         0.0811 
    125 H125       32.8216   31.3443    5.3710 H         1 UNK         0.3204 
    126 H126       32.2180   28.5450    5.1608 H         1 UNK         0.0748 
    127 H127       33.1753   28.4913    7.4707 H         1 UNK         0.0771 
    128 H128       33.8149   30.1157    7.2654 H         1 UNK         0.0771 
    129 H129       32.0719   29.8405    7.2964 H         1 UNK         0.0771 
    130 H130       33.8595   26.9074    5.8662 H         1 UNK         0.2980 
    131 H131       35.7083   26.4132    3.9099 H         1 UNK         0.0545 
    132 H132       39.0055   27.4743    4.7064 H         1 UNK         0.3459 
    133 H133       37.9965   26.5328    3.6387 H         1 UNK         0.3459 
    134 H134       36.2176   25.0884    6.5956 H         1 UNK         0.0616 
    135 H135       34.6097   24.9639    5.9846 H         1 UNK         0.0616 
    136 H136       34.9550   22.3821    6.1367 H         1 UNK         0.0634 
    137 H137       35.3784   21.5116    4.6866 H         1 UNK         0.0634 
@<TRIPOS>BOND
     1    1    2 1    
     2    1   72 1    
     3    1   73 1    
     4    1   74 1    
     5    2    3 2    
     6    2    4 am   BACKBONE|DICT|INTERRES
     7    4    5 1    
     8    4   75 1    
     9    5    6 1    
    10    5   35 1    
    11    5   76 1    
    12    6    7 1    
    13    6   77 1    
    14    6   78 1    
    15    7    8 1    
    16    8    9 1    
    17    8   79 1    
    18    8   80 1    
    19    9   10 ar   
    20    9   14 ar   
    21   10   11 ar   
    22   10   81 1    
    23   11   12 ar   
    24   11   71 1    
    25   12   13 ar   
    26   12   82 1    
    27   13   14 ar   
    28   13   15 1    
    29   14   83 1    
    30   15   16 1    
    31   15   84 1    
    32   15   85 1    
    33   16   17 1    
    34   17   18 1    
    35   17   86 1    
    36   17   87 1    
    37   18   19 1    
    38   18   37 1    
    39   18   88 1    
    40   19   20 am   BACKBONE|DICT|INTERRES
    41   19   89 1    
    42   20   21 2    
    43   20   22 1    
    44   22   23 1    
    45   22   24 1    
    46   22   90 1    
    47   23   91 1    
    48   23   92 1    
    49   23   93 1    
    50   24   25 am   BACKBONE|DICT|INTERRES
    51   24   94 1    
    52   25   26 2    
    53   25   27 1    
    54   27   28 1    
    55   27   29 1    
    56   27   95 1    
    57   28   96 1    
    58   28   97 1    
    59   28   98 1    
    60   29   30 am   BACKBONE|DICT|INTERRES
    61   29   99 1    
    62   30   31 2    
    63   30   32 1    
    64   32   33 1    
    65   32   34 1    
    66   32  100 1    
    67   33  101 1    
    68   33  102 1    
    69   33  103 1    
    70   34   35 am   BACKBONE|DICT|INTERRES
    71   34  104 1    
    72   35   36 2    
    73   37   38 2    
    74   37   39 am   BACKBONE|DICT|INTERRES
    75   39   40 1    
    76   39  105 1    
    77   40   41 1    
    78   40   42 1    
    79   40  106 1    
    80   41  107 1    
    81   41  108 1    
    82   41  109 1    
    83   42   43 2    
    84   42   44 am   BACKBONE|DICT|INTERRES
    85   44   45 1    
    86   44  110 1    
    87   45   46 1    
    88   45   47 1    
    89   45  111 1    
    90   46  112 1    
    91   46  113 1    
    92   46  114 1    
    93   47   48 2    
    94   47   49 am   BACKBONE|DICT|INTERRES
    95   49   50 1    
    96   49  115 1    
    97   50   51 1    
    98   50   52 1    
    99   50  116 1    
   100   51  117 1    
   101   51  118 1    
   102   51  119 1    
   103   52   53 2    
   104   52   54 am   BACKBONE|DICT|INTERRES
   105   54   55 1    
   106   54  120 1    
   107   55   56 1    
   108   55   57 1    
   109   55  121 1    
   110   56  122 1    
   111   56  123 1    
   112   56  124 1    
   113   57   58 2    
   114   57   59 am   BACKBONE|DICT|INTERRES
   115   59   60 1    
   116   59  125 1    
   117   60   61 1    
   118   60   62 1    
   119   60  126 1    
   120   61  127 1    
   121   61  128 1    
   122   61  129 1    
   123   62   63 2    
   124   62   64 am   BACKBONE|DICT|INTERRES
   125   64   65 1    
   126   64  130 1    
   127   65   66 1    
   128   65   69 1    
   129   65  131 1    
   130   66   67 am   BACKBONE|DICT|INTERRES
   131   66   68 2    
   132   67  132 1    
   133   67  133 1    
   134   69   70 1    
   135   69  134 1    
   136   69  135 1    
   137   70   71 1    
   138   71  136 1    
   139   71  137 1    
@<TRIPOS>SUBSTRUCTURE
     1 UNK         1 GROUP             0       ****    0 ROOT    
