@<TRIPOS>MOLECULE
3R136
137   139    1
SMALL
USER_CHARGES


@<TRIPOS>ATOM
      1 CA         26.7751   22.9016   -0.0529 C.3       0 UNK        -0.1979 
      2 C          27.2293   22.9351   -1.5107 C.2       0 UNK         0.4864 
      3 O          26.6252   22.2489   -2.3330 O.2       0 UNK        -0.5359 
      4 N          28.2680   23.6928   -1.9002 N.am      1 UNK        -0.4318 
      5 CA         29.1036   24.6210   -1.1181 C.3       1 UNK         0.0824 
      6 C6         29.8719   23.9711    0.0645 C.3       12 UNK        -0.0944 
      7 S7         30.7995   22.4688   -0.4039 S.3       12 UNK        -0.2672 
      8 C8         32.5230   22.9396   -0.0280 C.3       12 UNK         0.0333 
      9 C9         32.7221   23.4745    1.3884 C.ar      12 UNK        -0.0807 
     10 C10        33.5462   24.5860    1.5919 C.ar      12 UNK        -0.0894 
     11 C11        33.7211   25.1152    2.8726 C.ar      12 UNK        -0.0804 
     12 C12        33.0697   24.5235    3.9564 C.ar      12 UNK        -0.0824 
     13 C13        32.2351   23.4197    3.7688 C.ar      12 UNK        -0.0762 
     14 C14        32.0815   22.8861    2.4867 C.ar      12 UNK        -0.0782 
     15 C15        31.4891   22.8165    4.9504 C.3       12 UNK         0.0230 
     16 S16        29.7294   23.2976    4.9690 S.3       12 UNK        -0.2608 
     17 C17        29.8224   25.1189    5.0882 C.3       12 UNK        -0.0989 
     18 CA         29.3312   25.8055    3.7847 C.3       5 UNK         0.0716 
     19 N          27.9103   25.5330    3.5057 N.am      5 UNK        -0.4135 
     20 C          26.8648   25.9732    4.2215 C.2       4 UNK         0.5031 
     21 O          26.9509   26.7891    5.1411 O.2       4 UNK        -0.5229 
     22 CA         25.4966   25.3700    3.8712 C.3       4 UNK         0.0329 
     23 CB         24.3817   25.8074    4.8465 C.3       4 UNK        -0.2001 
     24 N          25.1005   25.6799    2.4964 N.am      4 UNK        -0.4303 
     25 C          24.2554   24.9294    1.7789 C.2       3 UNK         0.5044 
     26 O          23.8333   23.8360    2.1574 O.2       3 UNK        -0.5152 
     27 CA         23.7722   25.4645    0.4185 C.3       3 UNK         0.0319 
     28 CB         22.5835   26.4294    0.5988 C.3       3 UNK        -0.2001 
     29 N          24.8102   26.0418   -0.4449 N.am      3 UNK        -0.4354 
     30 C          25.5195   27.1664   -0.2780 C.2       2 UNK         0.4964 
     31 O          25.4421   27.8938    0.7132 O.2       2 UNK        -0.5047 
     32 CA         26.5138   27.4804   -1.4124 C.3       2 UNK         0.0288 
     33 CB         27.2408   28.8275   -1.2402 C.3       2 UNK        -0.2113 
     34 N          27.4746   26.3869   -1.6071 N.am      2 UNK        -0.4145 
     35 C          28.3164   25.8788   -0.6916 C.2       1 UNK         0.5006 
     36 O          28.4436   26.3240    0.4521 O.2       1 UNK        -0.5103 
     37 C          29.6516   27.3165    3.7382 C.2       5 UNK         0.5055 
     38 O          30.2416   27.8725    4.6702 O.2       5 UNK        -0.5220 
     39 N          29.2344   27.9522    2.6392 N.am      6 UNK        -0.4450 
     40 CA         29.3778   29.3832    2.3822 C.3       6 UNK         0.0367 
     41 CB         27.9858   30.0401    2.4164 C.3       6 UNK        -0.1929 
     42 C          30.1355   29.6351    1.0699 C.2       6 UNK         0.5070 
     43 O          29.9502   30.6804    0.4462 O.2       6 UNK        -0.5237 
     44 N          30.9902   28.6795    0.6729 N.am      7 UNK        -0.4739 
     45 CA         31.8168   28.7288   -0.5388 C.3       7 UNK         0.0276 
     46 CB         32.5538   27.3904   -0.7006 C.3       7 UNK        -0.1927 
     47 C          32.8149   29.9018   -0.5535 C.2       7 UNK         0.5013 
     48 O          33.1090   30.4332   -1.6244 O.2       7 UNK        -0.5193 
     49 N          33.2773   30.3026    0.6367 N.am      8 UNK        -0.4253 
     50 CA         34.0569   31.5120    0.8846 C.3       8 UNK         0.0242 
     51 CB         35.4629   31.1222    1.3771 C.3       8 UNK        -0.2000 
     52 C          33.2837   32.3894    1.8817 C.2       8 UNK         0.4948 
     53 O          33.7817   32.6781    2.9707 O.2       8 UNK        -0.5275 
     54 N          32.0469   32.7514    1.5077 N.am      9 UNK        -0.4246 
     55 CA         31.0543   33.5677    2.2273 C.3       9 UNK         0.0261 
     56 CB         31.5900   34.9797    2.5357 C.3       9 UNK        -0.1959 
     57 C          30.4662   32.9072    3.4880 C.2       9 UNK         0.5033 
     58 O          29.2496   32.9430    3.6705 O.2       9 UNK        -0.5390 
     59 N          31.3230   32.3080    4.3166 N.am      10 UNK        -0.4215 
     60 CA         31.0021   31.5354    5.5117 C.3       10 UNK         0.0240 
     61 CB         30.4649   32.4416    6.6385 C.3       10 UNK        -0.1982 
     62 C          32.3000   30.8394    5.9203 C.2       10 UNK         0.4970 
     63 O          33.2274   31.5250    6.3566 O.2       10 UNK        -0.4916 
     64 N          32.3707   29.5191    5.7294 N.am      11 UNK        -0.4279 
     65 CA         33.5987   28.7344    5.9287 C.3       11 UNK         0.1003 
     66 C          33.3806   27.3576    6.6145 C.2       11 UNK         0.5709 
     67 N          32.1772   27.0209    7.0623 N.am      11 UNK        -0.7358 
     68 O          34.3280   26.5934    6.7805 O.2       11 UNK        -0.4999 
     69 C69        34.4558   28.6807    4.6347 C.3       12 UNK        -0.0954 
     70 S70        33.6294   27.8494    3.2317 S.3       12 UNK        -0.2268 
     71 C71        34.6134   26.3230    3.0980 C.3       12 UNK         0.0203 
     72 H72        27.3883   22.2010    0.5130 H         1 UNK         0.0888 
     73 H73        26.8210   23.8749    0.4284 H         1 UNK         0.0888 
     74 H74        25.7418   22.5609    0.0112 H         1 UNK         0.0888 
     75 H75        28.5307   23.6328   -2.8743 H         1 UNK         0.3017 
     76 H76        29.8592   24.9854   -1.8160 H         1 UNK         0.0873 
     77 H77        29.2045   23.7078    0.8846 H         1 UNK         0.0745 
     78 H78        30.5619   24.7044    0.4838 H         1 UNK         0.0745 
     79 H79        33.1648   22.0692   -0.1690 H         1 UNK         0.0705 
     80 H80        32.8387   23.6810   -0.7638 H         1 UNK         0.0705 
     81 H81        34.0509   25.0428    0.7519 H         1 UNK         0.1334 
     82 H82        33.2026   24.9354    4.9467 H         1 UNK         0.1417 
     83 H83        31.4367   22.0299    2.3421 H         1 UNK         0.1562 
     84 H84        31.9522   23.1134    5.8928 H         1 UNK         0.0748 
     85 H85        31.5580   21.7286    4.9071 H         1 UNK         0.0748 
     86 H86        30.8483   25.4068    5.3122 H         1 UNK         0.0940 
     87 H87        29.2328   25.4475    5.9455 H         1 UNK         0.0940 
     88 H88        29.8937   25.3700    2.9569 H         1 UNK         0.0703 
     89 H89        27.7312   24.8991    2.7417 H         1 UNK         0.3081 
     90 H90        25.6184   24.2890    3.9704 H         1 UNK         0.0719 
     91 H91        24.6559   25.5902    5.8797 H         1 UNK         0.0809 
     92 H92        24.1862   26.8781    4.7767 H         1 UNK         0.0809 
     93 H93        23.4470   25.2830    4.6478 H         1 UNK         0.0809 
     94 H94        25.4050   26.5697    2.1064 H         1 UNK         0.2990 
     95 H95        23.3980   24.5991   -0.1314 H         1 UNK         0.0690 
     96 H96        22.1775   26.7430   -0.3629 H         1 UNK         0.0788 
     97 H97        22.8634   27.3257    1.1533 H         1 UNK         0.0788 
     98 H98        21.7742   25.9495    1.1507 H         1 UNK         0.0788 
     99 H99        24.9901   25.5125   -1.2867 H         1 UNK         0.2993 
    100 H100       25.9212   27.5496   -2.3263 H         1 UNK         0.0949 
    101 H101       27.8551   29.0613   -2.1095 H         1 UNK         0.0767 
    102 H102       26.5316   29.6461   -1.1114 H         1 UNK         0.0767 
    103 H103       27.8905   28.8187   -0.3698 H         1 UNK         0.0767 
    104 H104       27.4399   25.9341   -2.5101 H         1 UNK         0.3013 
    105 H105       28.8008   27.4049    1.8947 H         1 UNK         0.3121 
    106 H106       29.9866   29.8483    3.1571 H         1 UNK         0.0774 
    107 H107       27.2969   29.5733    1.7143 H         1 UNK         0.0815 
    108 H108       27.5450   29.9635    3.4103 H         1 UNK         0.0815 
    109 H109       28.0350   31.1005    2.1686 H         1 UNK         0.0815 
    110 H110       31.0812   27.8574    1.2522 H         1 UNK         0.2987 
    111 H111       31.1447   28.8602   -1.3897 H         1 UNK         0.0949 
    112 H112       31.8585   26.5522   -0.7432 H         1 UNK         0.0806 
    113 H113       33.1362   27.3751   -1.6229 H         1 UNK         0.0806 
    114 H114       33.2455   27.2148    0.1235 H         1 UNK         0.0806 
    115 H115       32.9765   29.7910    1.4553 H         1 UNK         0.3010 
    116 H116       34.1685   32.0970   -0.0310 H         1 UNK         0.0829 
    117 H117       35.4237   30.5309    2.2910 H         1 UNK         0.0813 
    118 H118       36.0644   32.0080    1.5849 H         1 UNK         0.0813 
    119 H119       35.9946   30.5378    0.6262 H         1 UNK         0.0813 
    120 H120       31.7074   32.3729    0.6319 H         1 UNK         0.3038 
    121 H121       30.2232   33.6832    1.5293 H         1 UNK         0.0769 
    122 H122       31.9323   35.4804    1.6301 H         1 UNK         0.0811 
    123 H123       32.4204   34.9590    3.2421 H         1 UNK         0.0811 
    124 H124       30.8095   35.6024    2.9749 H         1 UNK         0.0811 
    125 H125       32.3145   32.3630    4.0810 H         1 UNK         0.3204 
    126 H126       30.2460   30.7868    5.2688 H         1 UNK         0.0748 
    127 H127       31.1559   33.2536    6.8686 H         1 UNK         0.0771 
    128 H128       29.5058   32.8859    6.3729 H         1 UNK         0.0771 
    129 H129       30.3116   31.8716    7.5557 H         1 UNK         0.0771 
    130 H130       31.5797   29.0040    5.3463 H         1 UNK         0.2980 
    131 H131       34.2066   29.2576    6.6690 H         1 UNK         0.0545 
    132 H132       32.0604   26.1412    7.5380 H         1 UNK         0.3459 
    133 H133       31.3850   27.6269    6.9196 H         1 UNK         0.3459 
    134 H134       35.4254   28.2234    4.8354 H         1 UNK         0.0616 
    135 H135       34.6853   29.6996    4.3223 H         1 UNK         0.0616 
    136 H136       35.1989   26.1575    4.0031 H         1 UNK         0.0634 
    137 H137       35.3318   26.4334    2.2845 H         1 UNK         0.0634 
@<TRIPOS>BOND
     1    1    2 1    
     2    1   72 1    
     3    1   73 1    
     4    1   74 1    
     5    2    3 2    
     6    2    4 am   BACKBONE|DICT|INTERRES
     7    4    5 1    
     8    4   75 1    
     9    5    6 1    
    10    5   35 1    
    11    5   76 1    
    12    6    7 1    
    13    6   77 1    
    14    6   78 1    
    15    7    8 1    
    16    8    9 1    
    17    8   79 1    
    18    8   80 1    
    19    9   10 ar   
    20    9   14 ar   
    21   10   11 ar   
    22   10   81 1    
    23   11   12 ar   
    24   11   71 1    
    25   12   13 ar   
    26   12   82 1    
    27   13   14 ar   
    28   13   15 1    
    29   14   83 1    
    30   15   16 1    
    31   15   84 1    
    32   15   85 1    
    33   16   17 1    
    34   17   18 1    
    35   17   86 1    
    36   17   87 1    
    37   18   19 1    
    38   18   37 1    
    39   18   88 1    
    40   19   20 am   BACKBONE|DICT|INTERRES
    41   19   89 1    
    42   20   21 2    
    43   20   22 1    
    44   22   23 1    
    45   22   24 1    
    46   22   90 1    
    47   23   91 1    
    48   23   92 1    
    49   23   93 1    
    50   24   25 am   BACKBONE|DICT|INTERRES
    51   24   94 1    
    52   25   26 2    
    53   25   27 1    
    54   27   28 1    
    55   27   29 1    
    56   27   95 1    
    57   28   96 1    
    58   28   97 1    
    59   28   98 1    
    60   29   30 am   BACKBONE|DICT|INTERRES
    61   29   99 1    
    62   30   31 2    
    63   30   32 1    
    64   32   33 1    
    65   32   34 1    
    66   32  100 1    
    67   33  101 1    
    68   33  102 1    
    69   33  103 1    
    70   34   35 am   BACKBONE|DICT|INTERRES
    71   34  104 1    
    72   35   36 2    
    73   37   38 2    
    74   37   39 am   BACKBONE|DICT|INTERRES
    75   39   40 1    
    76   39  105 1    
    77   40   41 1    
    78   40   42 1    
    79   40  106 1    
    80   41  107 1    
    81   41  108 1    
    82   41  109 1    
    83   42   43 2    
    84   42   44 am   BACKBONE|DICT|INTERRES
    85   44   45 1    
    86   44  110 1    
    87   45   46 1    
    88   45   47 1    
    89   45  111 1    
    90   46  112 1    
    91   46  113 1    
    92   46  114 1    
    93   47   48 2    
    94   47   49 am   BACKBONE|DICT|INTERRES
    95   49   50 1    
    96   49  115 1    
    97   50   51 1    
    98   50   52 1    
    99   50  116 1    
   100   51  117 1    
   101   51  118 1    
   102   51  119 1    
   103   52   53 2    
   104   52   54 am   BACKBONE|DICT|INTERRES
   105   54   55 1    
   106   54  120 1    
   107   55   56 1    
   108   55   57 1    
   109   55  121 1    
   110   56  122 1    
   111   56  123 1    
   112   56  124 1    
   113   57   58 2    
   114   57   59 am   BACKBONE|DICT|INTERRES
   115   59   60 1    
   116   59  125 1    
   117   60   61 1    
   118   60   62 1    
   119   60  126 1    
   120   61  127 1    
   121   61  128 1    
   122   61  129 1    
   123   62   63 2    
   124   62   64 am   BACKBONE|DICT|INTERRES
   125   64   65 1    
   126   64  130 1    
   127   65   66 1    
   128   65   69 1    
   129   65  131 1    
   130   66   67 am   BACKBONE|DICT|INTERRES
   131   66   68 2    
   132   67  132 1    
   133   67  133 1    
   134   69   70 1    
   135   69  134 1    
   136   69  135 1    
   137   70   71 1    
   138   71  136 1    
   139   71  137 1    
@<TRIPOS>SUBSTRUCTURE
     1 UNK         1 GROUP             0       ****    0 ROOT    
