@<TRIPOS>MOLECULE
3R136
137   139    1
SMALL
USER_CHARGES


@<TRIPOS>ATOM
      1 CA         26.0998   22.7051    4.2544 C.3       0 UNK        -0.1979 
      2 C          26.7964   23.5853    3.2290 C.2       0 UNK         0.4864 
      3 O          26.2076   23.8958    2.1921 O.2       0 UNK        -0.5359 
      4 N          28.0378   24.0052    3.5178 N.am      1 UNK        -0.4318 
      5 CA         28.9019   24.8170    2.6478 C.3       1 UNK         0.0824 
      6 C6         30.2401   25.1884    3.3287 C.3       12 UNK        -0.0944 
      7 S7         31.2181   23.7559    3.8881 S.3       12 UNK        -0.2672 
      8 C8         31.9327   23.1205    2.3358 C.3       12 UNK         0.0333 
      9 C9         32.6642   24.1837    1.5251 C.ar      12 UNK        -0.0807 
     10 C10        33.8688   24.7245    1.9820 C.ar      12 UNK        -0.0894 
     11 C11        34.5503   25.6803    1.2212 C.ar      12 UNK        -0.0804 
     12 C12        34.0203   26.0828   -0.0095 C.ar      12 UNK        -0.0824 
     13 C13        32.8112   25.5605   -0.4797 C.ar      12 UNK        -0.0762 
     14 C14        32.1379   24.6114    0.3031 C.ar      12 UNK        -0.0782 
     15 C15        32.2718   26.0740   -1.8185 C.3       12 UNK         0.0230 
     16 S16        30.8012   25.1950   -2.4543 S.3       12 UNK        -0.2608 
     17 C17        29.9711   26.4760   -3.4625 C.3       12 UNK        -0.0989 
     18 CA         28.8650   27.2759   -2.7035 C.3       5 UNK         0.0716 
     19 N          27.9621   26.4210   -1.9174 N.am      5 UNK        -0.4135 
     20 C          27.1405   25.5258   -2.4847 C.2       4 UNK         0.5031 
     21 O          26.9304   25.4598   -3.6977 O.2       4 UNK        -0.5229 
     22 CA         26.4646   24.4969   -1.5639 C.3       4 UNK         0.0329 
     23 CB         27.4930   23.4853   -1.0304 C.3       4 UNK        -0.2001 
     24 N          25.7332   25.0917   -0.4483 N.am      4 UNK        -0.4303 
     25 C          24.6280   25.8416   -0.5656 C.2       3 UNK         0.5044 
     26 O          24.1071   26.1427   -1.6401 O.2       3 UNK        -0.5152 
     27 CA         23.9872   26.3301    0.7421 C.3       3 UNK         0.0319 
     28 CB         23.0574   25.2556    1.3294 C.3       3 UNK        -0.2001 
     29 N          25.0080   26.6861    1.7264 N.am      3 UNK        -0.4354 
     30 C          25.6220   27.8768    1.7691 C.2       2 UNK         0.4964 
     31 O          25.3073   28.8329    1.0606 O.2       2 UNK        -0.5047 
     32 CA         26.7760   28.0323    2.7750 C.3       2 UNK         0.0288 
     33 CB         26.2464   28.5949    4.1046 C.3       2 UNK        -0.2113 
     34 N          27.5032   26.7885    3.0371 N.am      2 UNK        -0.4145 
     35 C          28.2248   26.1029    2.1372 C.2       1 UNK         0.5006 
     36 O          28.3553   26.4250    0.9541 O.2       1 UNK        -0.5103 
     37 C          29.4951   28.4409   -1.9166 C.2       5 UNK         0.5055 
     38 O          29.8222   29.4527   -2.5408 O.2       5 UNK        -0.5220 
     39 N          29.7267   28.2886   -0.6060 N.am      6 UNK        -0.4450 
     40 CA         30.4764   29.2553    0.1997 C.3       6 UNK         0.0367 
     41 CB         31.0187   28.5545    1.4561 C.3       6 UNK        -0.1929 
     42 C          29.6297   30.4813    0.5772 C.2       6 UNK         0.5070 
     43 O          28.4008   30.4089    0.6057 O.2       6 UNK        -0.5237 
     44 N          30.3154   31.5848    0.8975 N.am      7 UNK        -0.4739 
     45 CA         29.7070   32.8407    1.3528 C.3       7 UNK         0.0276 
     46 CB         30.6447   34.0027    0.9815 C.3       7 UNK        -0.1927 
     47 C          29.3969   32.8578    2.8635 C.2       7 UNK         0.5013 
     48 O          28.8007   33.8238    3.3421 O.2       7 UNK        -0.5193 
     49 N          29.8196   31.8182    3.5902 N.am      8 UNK        -0.4253 
     50 CA         29.6679   31.6489    5.0309 C.3       8 UNK         0.0242 
     51 CB         30.8426   32.3378    5.7526 C.3       8 UNK        -0.2000 
     52 C          29.6197   30.1488    5.3446 C.2       8 UNK         0.4948 
     53 O          29.8027   29.3238    4.4436 O.2       8 UNK        -0.5275 
     54 N          29.3884   29.8123    6.6199 N.am      9 UNK        -0.4246 
     55 CA         29.3822   28.4455    7.1501 C.3       9 UNK         0.0261 
     56 CB         28.7133   28.4501    8.5373 C.3       9 UNK        -0.1959 
     57 C          30.7995   27.8355    7.1770 C.2       9 UNK         0.5033 
     58 O          31.3930   27.7019    8.2491 O.2       9 UNK        -0.5390 
     59 N          31.2923   27.5019    5.9774 N.am      10 UNK        -0.4215 
     60 CA         32.6266   27.0160    5.6097 C.3       10 UNK         0.0240 
     61 CB         33.0920   25.8367    6.4896 C.3       10 UNK        -0.1982 
     62 C          33.6643   28.1490    5.5596 C.2       10 UNK         0.4970 
     63 O          33.4556   29.2288    6.1178 O.2       10 UNK        -0.4916 
     64 N          34.7583   27.8800    4.8417 N.am      11 UNK        -0.4279 
     65 CA         35.8616   28.8186    4.6007 C.3       11 UNK         0.1003 
     66 C          36.7096   29.0852    5.8737 C.2       11 UNK         0.5709 
     67 N          37.2630   30.2825    6.0106 N.am      11 UNK        -0.7358 
     68 O          36.9047   28.2076    6.7132 O.2       11 UNK        -0.4999 
     69 C69        36.7566   28.3489    3.4240 C.3       12 UNK        -0.0954 
     70 S70        35.7963   28.0732    1.8945 S.3       12 UNK        -0.2268 
     71 C71        35.8691   26.2589    1.7182 C.3       12 UNK         0.0203 
     72 H72        25.1776   23.1788    4.5895 H         1 UNK         0.0888 
     73 H73        25.8466   21.7433    3.8093 H         1 UNK         0.0888 
     74 H74        26.7254   22.5215    5.1277 H         1 UNK         0.0888 
     75 H75        28.4695   23.7003    4.3790 H         1 UNK         0.3017 
     76 H76        29.1244   24.2072    1.7713 H         1 UNK         0.0873 
     77 H77        30.0466   25.8033    4.2081 H         1 UNK         0.0745 
     78 H78        30.8593   25.8009    2.6722 H         1 UNK         0.0745 
     79 H79        31.1373   22.6625    1.7460 H         1 UNK         0.0705 
     80 H80        32.6286   22.3156    2.5766 H         1 UNK         0.0705 
     81 H81        34.2729   24.3936    2.9290 H         1 UNK         0.1334 
     82 H82        34.5502   26.8190   -0.5989 H         1 UNK         0.1417 
     83 H83        31.1997   24.1917   -0.0283 H         1 UNK         0.1562 
     84 H84        33.0574   26.0077   -2.5725 H         1 UNK         0.0748 
     85 H85        32.0467   27.1336   -1.7048 H         1 UNK         0.0748 
     86 H86        30.7171   27.1378   -3.9081 H         1 UNK         0.0940 
     87 H87        29.5177   25.9627   -4.3115 H         1 UNK         0.0940 
     88 H88        28.2428   27.7625   -3.4582 H         1 UNK         0.0703 
     89 H89        28.0613   26.4294   -0.9061 H         1 UNK         0.3081 
     90 H90        25.7404   23.9440   -2.1661 H         1 UNK         0.0719 
     91 H91        27.0164   22.7143   -0.4246 H         1 UNK         0.0809 
     92 H92        28.0066   22.9836   -1.8517 H         1 UNK         0.0809 
     93 H93        28.2562   23.9670   -0.4202 H         1 UNK         0.0809 
     94 H94        26.0470   24.8418    0.4850 H         1 UNK         0.2990 
     95 H95        23.3807   27.2094    0.5136 H         1 UNK         0.0690 
     96 H96        22.2721   24.9917    0.6197 H         1 UNK         0.0788 
     97 H97        22.5681   25.6089    2.2371 H         1 UNK         0.0788 
     98 H98        23.5960   24.3393    1.5740 H         1 UNK         0.0788 
     99 H99        25.3526   25.9354    2.3113 H         1 UNK         0.2993 
    100 H100       27.4878   28.7463    2.3581 H         1 UNK         0.0949 
    101 H101       25.5186   27.9261    4.5658 H         1 UNK         0.0767 
    102 H102       27.0519   28.7565    4.8192 H         1 UNK         0.0767 
    103 H103       25.7553   29.5568    3.9506 H         1 UNK         0.0767 
    104 H104       27.4483   26.4249    3.9768 H         1 UNK         0.3013 
    105 H105       29.3553   27.4851   -0.1069 H         1 UNK         0.3121 
    106 H106       31.3312   29.5990   -0.3874 H         1 UNK         0.0774 
    107 H107       30.2114   28.2198    2.1054 H         1 UNK         0.0815 
    108 H108       31.6492   29.2228    2.0436 H         1 UNK         0.0815 
    109 H109       31.6263   27.6873    1.1982 H         1 UNK         0.0815 
    110 H110       31.3249   31.5646    0.8531 H         1 UNK         0.2987 
    111 H111       28.7594   32.9884    0.8296 H         1 UNK         0.0949 
    112 H112       31.6071   33.9237    1.4887 H         1 UNK         0.0806 
    113 H113       30.8310   34.0353   -0.0921 H         1 UNK         0.0806 
    114 H114       30.2083   34.9630    1.2602 H         1 UNK         0.0806 
    115 H115       30.2156   31.0157    3.1183 H         1 UNK         0.3010 
    116 H116       28.7223   32.0912    5.3522 H         1 UNK         0.0829 
    117 H117       30.8992   33.3964    5.4985 H         1 UNK         0.0813 
    118 H118       30.7384   32.2755    6.8362 H         1 UNK         0.0813 
    119 H119       31.7977   31.8799    5.4900 H         1 UNK         0.0813 
    120 H120       29.2747   30.5510    7.2990 H         1 UNK         0.3038 
    121 H121       28.7701   27.8234    6.4933 H         1 UNK         0.0769 
    122 H122       29.2505   29.0832    9.2447 H         1 UNK         0.0811 
    123 H123       28.6832   27.4442    8.9582 H         1 UNK         0.0811 
    124 H124       27.6847   28.8068    8.4808 H         1 UNK         0.0811 
    125 H125       30.7370   27.8355    5.1928 H         1 UNK         0.3204 
    126 H126       32.5209   26.6429    4.5897 H         1 UNK         0.0748 
    127 H127       33.9754   25.3580    6.0662 H         1 UNK         0.0771 
    128 H128       33.3542   26.1578    7.4980 H         1 UNK         0.0771 
    129 H129       32.3195   25.0719    6.5693 H         1 UNK         0.0771 
    130 H130       34.8615   26.9686    4.4244 H         1 UNK         0.2980 
    131 H131       35.4078   29.7681    4.3084 H         1 UNK         0.0545 
    132 H132       37.8302   30.4695    6.8227 H         1 UNK         0.3459 
    133 H133       37.1216   31.0050    5.3219 H         1 UNK         0.3459 
    134 H134       37.5109   29.1059    3.2022 H         1 UNK         0.0616 
    135 H135       37.3094   27.4468    3.6912 H         1 UNK         0.0616 
    136 H136       36.1400   25.8003    2.6698 H         1 UNK         0.0634 
    137 H137       36.6641   26.0025    1.0168 H         1 UNK         0.0634 
@<TRIPOS>BOND
     1    1    2 1    
     2    1   72 1    
     3    1   73 1    
     4    1   74 1    
     5    2    3 2    
     6    2    4 am   BACKBONE|DICT|INTERRES
     7    4    5 1    
     8    4   75 1    
     9    5    6 1    
    10    5   35 1    
    11    5   76 1    
    12    6    7 1    
    13    6   77 1    
    14    6   78 1    
    15    7    8 1    
    16    8    9 1    
    17    8   79 1    
    18    8   80 1    
    19    9   10 ar   
    20    9   14 ar   
    21   10   11 ar   
    22   10   81 1    
    23   11   12 ar   
    24   11   71 1    
    25   12   13 ar   
    26   12   82 1    
    27   13   14 ar   
    28   13   15 1    
    29   14   83 1    
    30   15   16 1    
    31   15   84 1    
    32   15   85 1    
    33   16   17 1    
    34   17   18 1    
    35   17   86 1    
    36   17   87 1    
    37   18   19 1    
    38   18   37 1    
    39   18   88 1    
    40   19   20 am   BACKBONE|DICT|INTERRES
    41   19   89 1    
    42   20   21 2    
    43   20   22 1    
    44   22   23 1    
    45   22   24 1    
    46   22   90 1    
    47   23   91 1    
    48   23   92 1    
    49   23   93 1    
    50   24   25 am   BACKBONE|DICT|INTERRES
    51   24   94 1    
    52   25   26 2    
    53   25   27 1    
    54   27   28 1    
    55   27   29 1    
    56   27   95 1    
    57   28   96 1    
    58   28   97 1    
    59   28   98 1    
    60   29   30 am   BACKBONE|DICT|INTERRES
    61   29   99 1    
    62   30   31 2    
    63   30   32 1    
    64   32   33 1    
    65   32   34 1    
    66   32  100 1    
    67   33  101 1    
    68   33  102 1    
    69   33  103 1    
    70   34   35 am   BACKBONE|DICT|INTERRES
    71   34  104 1    
    72   35   36 2    
    73   37   38 2    
    74   37   39 am   BACKBONE|DICT|INTERRES
    75   39   40 1    
    76   39  105 1    
    77   40   41 1    
    78   40   42 1    
    79   40  106 1    
    80   41  107 1    
    81   41  108 1    
    82   41  109 1    
    83   42   43 2    
    84   42   44 am   BACKBONE|DICT|INTERRES
    85   44   45 1    
    86   44  110 1    
    87   45   46 1    
    88   45   47 1    
    89   45  111 1    
    90   46  112 1    
    91   46  113 1    
    92   46  114 1    
    93   47   48 2    
    94   47   49 am   BACKBONE|DICT|INTERRES
    95   49   50 1    
    96   49  115 1    
    97   50   51 1    
    98   50   52 1    
    99   50  116 1    
   100   51  117 1    
   101   51  118 1    
   102   51  119 1    
   103   52   53 2    
   104   52   54 am   BACKBONE|DICT|INTERRES
   105   54   55 1    
   106   54  120 1    
   107   55   56 1    
   108   55   57 1    
   109   55  121 1    
   110   56  122 1    
   111   56  123 1    
   112   56  124 1    
   113   57   58 2    
   114   57   59 am   BACKBONE|DICT|INTERRES
   115   59   60 1    
   116   59  125 1    
   117   60   61 1    
   118   60   62 1    
   119   60  126 1    
   120   61  127 1    
   121   61  128 1    
   122   61  129 1    
   123   62   63 2    
   124   62   64 am   BACKBONE|DICT|INTERRES
   125   64   65 1    
   126   64  130 1    
   127   65   66 1    
   128   65   69 1    
   129   65  131 1    
   130   66   67 am   BACKBONE|DICT|INTERRES
   131   66   68 2    
   132   67  132 1    
   133   67  133 1    
   134   69   70 1    
   135   69  134 1    
   136   69  135 1    
   137   70   71 1    
   138   71  136 1    
   139   71  137 1    
@<TRIPOS>SUBSTRUCTURE
     1 UNK         1 GROUP             0       ****    0 ROOT    
