@<TRIPOS>MOLECULE
3R136
137   139    1
SMALL
USER_CHARGES


@<TRIPOS>ATOM
      1 CA         29.6722   28.0288   -3.4072 C.3       0 UNK        -0.1979 
      2 C          29.3280   26.6443   -2.8773 C.2       0 UNK         0.4864 
      3 O          28.7919   25.8257   -3.6258 O.2       0 UNK        -0.5359 
      4 N          29.6352   26.3860   -1.5985 N.am      1 UNK        -0.4318 
      5 CA         29.3721   25.1457   -0.8584 C.3       1 UNK         0.0824 
      6 C6         30.1245   23.9034   -1.4126 C.3       12 UNK        -0.0944 
      7 S7         31.9340   24.1013   -1.3367 S.3       12 UNK        -0.2672 
      8 C8         32.4020   22.7688   -0.1886 C.3       12 UNK         0.0333 
      9 C9         32.1860   23.1544    1.2684 C.ar      12 UNK        -0.0807 
     10 C10        33.1053   23.9971    1.9000 C.ar      12 UNK        -0.0894 
     11 C11        32.9902   24.3016    3.2592 C.ar      12 UNK        -0.0804 
     12 C12        31.9263   23.7461    3.9829 C.ar      12 UNK        -0.0824 
     13 C13        30.9818   22.9229    3.3626 C.ar      12 UNK        -0.0762 
     14 C14        31.1144   22.6310    2.0010 C.ar      12 UNK        -0.0782 
     15 C15        29.8575   22.3066    4.1896 C.3       12 UNK         0.0230 
     16 S16        28.2614   23.1702    4.0062 S.3       12 UNK        -0.2608 
     17 C17        28.6526   24.8752    4.5317 C.3       12 UNK        -0.0989 
     18 CA         28.5709   25.8312    3.3142 C.3       5 UNK         0.0716 
     19 N          27.1995   26.0611    2.8428 N.am      5 UNK        -0.4135 
     20 C          26.2275   26.7224    3.4897 C.2       4 UNK         0.5031 
     21 O          26.3327   27.1873    4.6252 O.2       4 UNK        -0.5229 
     22 CA         24.9041   26.9066    2.7321 C.3       4 UNK         0.0329 
     23 CB         25.0109   28.0698    1.7313 C.3       4 UNK        -0.2001 
     24 N          24.4781   25.6943    2.0323 N.am      4 UNK        -0.4303 
     25 C          23.9999   24.5925    2.6312 C.2       3 UNK         0.5044 
     26 O          23.8594   24.4835    3.8498 O.2       3 UNK        -0.5152 
     27 CA         23.5735   23.4215    1.7239 C.3       3 UNK         0.0319 
     28 CB         22.0409   23.3572    1.6147 C.3       3 UNK        -0.2001 
     29 N          24.1427   23.5116    0.3770 N.am      3 UNK        -0.4354 
     30 C          25.4006   23.1744    0.0659 C.2       2 UNK         0.4964 
     31 O          26.1731   22.6277    0.8552 O.2       2 UNK        -0.5047 
     32 CA         25.8850   23.5077   -1.3604 C.3       2 UNK         0.0288 
     33 CB         25.0164   24.5583   -2.0921 C.3       2 UNK        -0.2113 
     34 N          27.2938   23.9184   -1.3779 N.am      2 UNK        -0.4145 
     35 C          27.8513   24.9376   -0.7035 C.2       1 UNK         0.5006 
     36 O          27.2236   25.7042    0.0326 O.2       1 UNK        -0.5103 
     37 C          29.2986   27.1750    3.5105 C.2       5 UNK         0.5055 
     38 O          29.6863   27.5405    4.6236 O.2       5 UNK        -0.5220 
     39 N          29.4395   27.8993    2.3971 N.am      6 UNK        -0.4450 
     40 CA         30.1304   29.1748    2.2984 C.3       6 UNK         0.0367 
     41 CB         29.1104   30.3171    2.4560 C.3       6 UNK        -0.1929 
     42 C          30.8262   29.2508    0.9375 C.2       6 UNK         0.5070 
     43 O          30.4351   28.5417    0.0067 O.2       6 UNK        -0.5237 
     44 N          31.8232   30.1301    0.8502 N.am      7 UNK        -0.4739 
     45 CA         32.5247   30.5070   -0.3727 C.3       7 UNK         0.0276 
     46 CB         33.8987   29.8065   -0.4136 C.3       7 UNK        -0.1927 
     47 C          32.5785   32.0414   -0.3936 C.2       7 UNK         0.5013 
     48 O          31.5241   32.6708   -0.4941 O.2       7 UNK        -0.5193 
     49 N          33.7763   32.6263   -0.2452 N.am      8 UNK        -0.4253 
     50 CA         33.9746   34.0672   -0.0323 C.3       8 UNK         0.0242 
     51 CB         35.4614   34.4080   -0.2249 C.3       8 UNK        -0.2000 
     52 C          33.4860   34.5436    1.3521 C.2       8 UNK         0.4948 
     53 O          33.1727   35.7235    1.5146 O.2       8 UNK        -0.5275 
     54 N          33.4190   33.6142    2.3101 N.am      9 UNK        -0.4246 
     55 CA         32.8401   33.7506    3.6402 C.3       9 UNK         0.0261 
     56 CB         33.9301   34.1929    4.6333 C.3       9 UNK        -0.1959 
     57 C          32.2472   32.3853    4.0193 C.2       9 UNK         0.5033 
     58 O          32.4724   31.4046    3.3008 O.2       9 UNK        -0.5390 
     59 N          31.5031   32.3367    5.1310 N.am      10 UNK        -0.4215 
     60 CA         30.9514   31.1043    5.7029 C.3       10 UNK         0.0240 
     61 CB         29.9616   31.4627    6.8229 C.3       10 UNK        -0.1982 
     62 C          32.0578   30.1779    6.2351 C.2       10 UNK         0.4970 
     63 O          33.0477   30.6706    6.7820 O.2       10 UNK        -0.4916 
     64 N          31.8591   28.8618    6.0906 N.am      11 UNK        -0.4279 
     65 CA         32.7926   27.8304    6.5723 C.3       11 UNK         0.1003 
     66 C          32.8648   27.6967    8.1237 C.2       11 UNK         0.5709 
     67 N          31.8665   28.1519    8.8726 N.am      11 UNK        -0.7358 
     68 O          33.8473   27.1882    8.6578 O.2       11 UNK        -0.4999 
     69 C69        32.4999   26.4679    5.8917 C.3       12 UNK        -0.0954 
     70 S70        33.9786   25.4164    5.7011 S.3       12 UNK        -0.2268 
     71 C71        34.0506   25.2156    3.8850 C.3       12 UNK         0.0203 
     72 H72        30.2043   28.6281   -2.6689 H         1 UNK         0.0888 
     73 H73        30.3032   27.9457   -4.2917 H         1 UNK         0.0888 
     74 H74        28.7626   28.5608   -3.6845 H         1 UNK         0.0888 
     75 H75        30.0297   27.1420   -1.0385 H         1 UNK         0.3017 
     76 H76        29.7471   25.3193    0.1509 H         1 UNK         0.0873 
     77 H77        29.8564   23.7050   -2.4513 H         1 UNK         0.0745 
     78 H78        29.8455   23.0108   -0.8500 H         1 UNK         0.0745 
     79 H79        33.4579   22.5397   -0.3409 H         1 UNK         0.0705 
     80 H80        31.8623   21.8536   -0.4371 H         1 UNK         0.0705 
     81 H81        33.9306   24.4025    1.3299 H         1 UNK         0.1334 
     82 H82        31.8235   23.9371    5.0399 H         1 UNK         0.1417 
     83 H83        30.3999   21.9743    1.5232 H         1 UNK         0.1562 
     84 H84        30.1274   22.2860    5.2467 H         1 UNK         0.0748 
     85 H85        29.7240   21.2644    3.8961 H         1 UNK         0.0748 
     86 H86        29.6411   24.8984    4.9893 H         1 UNK         0.0940 
     87 H87        27.9603   25.1772    5.3187 H         1 UNK         0.0940 
     88 H88        29.0968   25.3452    2.4910 H         1 UNK         0.0703 
     89 H89        27.0175   25.7727    1.8844 H         1 UNK         0.3081 
     90 H90        24.1351   27.1621    3.4647 H         1 UNK         0.0719 
     91 H91        24.0521   28.2704    1.2529 H         1 UNK         0.0809 
     92 H92        25.3197   28.9880    2.2331 H         1 UNK         0.0809 
     93 H93        25.7412   27.8674    0.9468 H         1 UNK         0.0809 
     94 H94        24.5845   25.6872    1.0287 H         1 UNK         0.2990 
     95 H95        23.9199   22.4986    2.1945 H         1 UNK         0.0690 
     96 H96        21.5835   23.2566    2.6000 H         1 UNK         0.0788 
     97 H97        21.7208   22.4996    1.0225 H         1 UNK         0.0788 
     98 H98        21.6292   24.2567    1.1551 H         1 UNK         0.0788 
     99 H99        23.5647   23.9332   -0.3362 H         1 UNK         0.2993 
    100 H100       25.8286   22.5751   -1.9239 H         1 UNK         0.0949 
    101 H101       24.9557   25.4971   -1.5398 H         1 UNK         0.0767 
    102 H102       25.4290   24.7862   -3.0753 H         1 UNK         0.0767 
    103 H103       24.0004   24.1971   -2.2558 H         1 UNK         0.0767 
    104 H104       27.9006   23.3514   -1.9523 H         1 UNK         0.3013 
    105 H105       29.1238   27.5313    1.5089 H         1 UNK         0.3121 
    106 H106       30.8956   29.2377    3.0741 H         1 UNK         0.0774 
    107 H107       28.3724   30.3091    1.6528 H         1 UNK         0.0815 
    108 H108       29.6046   31.2893    2.4362 H         1 UNK         0.0815 
    109 H109       28.5712   30.2441    3.4005 H         1 UNK         0.0815 
    110 H110       32.0586   30.6665    1.6856 H         1 UNK         0.2987 
    111 H111       31.9509   30.2015   -1.2506 H         1 UNK         0.0949 
    112 H112       34.5042   30.0325    0.4650 H         1 UNK         0.0806 
    113 H113       33.7768   28.7237   -0.4532 H         1 UNK         0.0806 
    114 H114       34.4647   30.0937   -1.3008 H         1 UNK         0.0806 
    115 H115       34.5960   32.0391   -0.1857 H         1 UNK         0.3010 
    116 H116       33.3979   34.6071   -0.7866 H         1 UNK         0.0829 
    117 H117       35.8044   34.1401   -1.2245 H         1 UNK         0.0813 
    118 H118       35.6347   35.4780   -0.1011 H         1 UNK         0.0813 
    119 H119       36.0928   33.8905    0.4986 H         1 UNK         0.0813 
    120 H120       33.6414   32.6557    2.0734 H         1 UNK         0.3038 
    121 H121       32.0320   34.4848    3.6170 H         1 UNK         0.0769 
    122 H122       34.7318   33.4564    4.7036 H         1 UNK         0.0811 
    123 H123       33.5228   34.3288    5.6357 H         1 UNK         0.0811 
    124 H124       34.3747   35.1426    4.3353 H         1 UNK         0.0811 
    125 H125       31.3911   33.1775    5.6787 H         1 UNK         0.3204 
    126 H126       30.4042   30.5793    4.9213 H         1 UNK         0.0748 
    127 H127       30.4518   31.9904    7.6424 H         1 UNK         0.0771 
    128 H128       29.1533   32.0932    6.4517 H         1 UNK         0.0771 
    129 H129       29.5028   30.5654    7.2404 H         1 UNK         0.0771 
    130 H130       31.0151   28.5178    5.6389 H         1 UNK         0.2980 
    131 H131       33.7849   28.1531    6.2504 H         1 UNK         0.0545 
    132 H132       31.0557   28.5692    8.4456 H         1 UNK         0.3459 
    133 H133       31.9246   28.0691    9.8752 H         1 UNK         0.3459 
    134 H134       31.7275   25.9154    6.4298 H         1 UNK         0.0616 
    135 H135       32.0965   26.6349    4.8929 H         1 UNK         0.0616 
    136 H136       35.0363   24.8174    3.6401 H         1 UNK         0.0634 
    137 H137       33.9940   26.2003    3.4186 H         1 UNK         0.0634 
@<TRIPOS>BOND
     1    1    2 1    
     2    1   72 1    
     3    1   73 1    
     4    1   74 1    
     5    2    3 2    
     6    2    4 am   BACKBONE|DICT|INTERRES
     7    4    5 1    
     8    4   75 1    
     9    5    6 1    
    10    5   35 1    
    11    5   76 1    
    12    6    7 1    
    13    6   77 1    
    14    6   78 1    
    15    7    8 1    
    16    8    9 1    
    17    8   79 1    
    18    8   80 1    
    19    9   10 ar   
    20    9   14 ar   
    21   10   11 ar   
    22   10   81 1    
    23   11   12 ar   
    24   11   71 1    
    25   12   13 ar   
    26   12   82 1    
    27   13   14 ar   
    28   13   15 1    
    29   14   83 1    
    30   15   16 1    
    31   15   84 1    
    32   15   85 1    
    33   16   17 1    
    34   17   18 1    
    35   17   86 1    
    36   17   87 1    
    37   18   19 1    
    38   18   37 1    
    39   18   88 1    
    40   19   20 am   BACKBONE|DICT|INTERRES
    41   19   89 1    
    42   20   21 2    
    43   20   22 1    
    44   22   23 1    
    45   22   24 1    
    46   22   90 1    
    47   23   91 1    
    48   23   92 1    
    49   23   93 1    
    50   24   25 am   BACKBONE|DICT|INTERRES
    51   24   94 1    
    52   25   26 2    
    53   25   27 1    
    54   27   28 1    
    55   27   29 1    
    56   27   95 1    
    57   28   96 1    
    58   28   97 1    
    59   28   98 1    
    60   29   30 am   BACKBONE|DICT|INTERRES
    61   29   99 1    
    62   30   31 2    
    63   30   32 1    
    64   32   33 1    
    65   32   34 1    
    66   32  100 1    
    67   33  101 1    
    68   33  102 1    
    69   33  103 1    
    70   34   35 am   BACKBONE|DICT|INTERRES
    71   34  104 1    
    72   35   36 2    
    73   37   38 2    
    74   37   39 am   BACKBONE|DICT|INTERRES
    75   39   40 1    
    76   39  105 1    
    77   40   41 1    
    78   40   42 1    
    79   40  106 1    
    80   41  107 1    
    81   41  108 1    
    82   41  109 1    
    83   42   43 2    
    84   42   44 am   BACKBONE|DICT|INTERRES
    85   44   45 1    
    86   44  110 1    
    87   45   46 1    
    88   45   47 1    
    89   45  111 1    
    90   46  112 1    
    91   46  113 1    
    92   46  114 1    
    93   47   48 2    
    94   47   49 am   BACKBONE|DICT|INTERRES
    95   49   50 1    
    96   49  115 1    
    97   50   51 1    
    98   50   52 1    
    99   50  116 1    
   100   51  117 1    
   101   51  118 1    
   102   51  119 1    
   103   52   53 2    
   104   52   54 am   BACKBONE|DICT|INTERRES
   105   54   55 1    
   106   54  120 1    
   107   55   56 1    
   108   55   57 1    
   109   55  121 1    
   110   56  122 1    
   111   56  123 1    
   112   56  124 1    
   113   57   58 2    
   114   57   59 am   BACKBONE|DICT|INTERRES
   115   59   60 1    
   116   59  125 1    
   117   60   61 1    
   118   60   62 1    
   119   60  126 1    
   120   61  127 1    
   121   61  128 1    
   122   61  129 1    
   123   62   63 2    
   124   62   64 am   BACKBONE|DICT|INTERRES
   125   64   65 1    
   126   64  130 1    
   127   65   66 1    
   128   65   69 1    
   129   65  131 1    
   130   66   67 am   BACKBONE|DICT|INTERRES
   131   66   68 2    
   132   67  132 1    
   133   67  133 1    
   134   69   70 1    
   135   69  134 1    
   136   69  135 1    
   137   70   71 1    
   138   71  136 1    
   139   71  137 1    
@<TRIPOS>SUBSTRUCTURE
     1 UNK         1 GROUP             0       ****    0 ROOT    
