@<TRIPOS>MOLECULE
3R136
137   139    1
SMALL
USER_CHARGES


@<TRIPOS>ATOM
      1 CA         25.6547   18.6206   -0.6269 C.3       0 UNK        -0.1979 
      2 C          26.6530   19.7678   -0.5758 C.2       0 UNK         0.4864 
      3 O          26.4503   20.7815   -1.2443 O.2       0 UNK        -0.5359 
      4 N          27.7289   19.6099    0.2056 N.am      1 UNK        -0.4318 
      5 CA         28.7666   20.6173    0.4432 C.3       1 UNK         0.0824 
      6 C6         30.0401   19.9410    1.0236 C.3       12 UNK        -0.0944 
      7 S7         31.5812   20.8633    0.7030 S.3       12 UNK        -0.2672 
      8 C8         32.1524   21.3255    2.3722 C.3       12 UNK         0.0333 
      9 C9         32.0160   22.8208    2.6209 C.ar      12 UNK        -0.0807 
     10 C10        32.9512   23.7065    2.0766 C.ar      12 UNK        -0.0894 
     11 C11        32.8513   25.0837    2.2986 C.ar      12 UNK        -0.0804 
     12 C12        31.7860   25.5710    3.0677 C.ar      12 UNK        -0.0824 
     13 C13        30.8549   24.6960    3.6342 C.ar      12 UNK        -0.0762 
     14 C14        30.9753   23.3206    3.4079 C.ar      12 UNK        -0.0782 
     15 C15        29.7147   25.2380    4.4838 C.3       12 UNK         0.0230 
     16 S16        28.1283   24.9599    3.6482 S.3       12 UNK        -0.2608 
     17 C17        27.1717   26.4778    3.9627 C.3       12 UNK        -0.0989 
     18 CA         27.7794   27.7989    3.4135 C.3       5 UNK         0.0716 
     19 N          28.4061   27.6785    2.0912 N.am      5 UNK        -0.4135 
     20 C          29.2211   28.6094    1.5649 C.2       4 UNK         0.5031 
     21 O          29.5674   29.6275    2.1662 O.2       4 UNK        -0.5229 
     22 CA         29.7198   28.4065    0.1203 C.3       4 UNK         0.0329 
     23 CB         31.0890   27.7134    0.1150 C.3       4 UNK        -0.2001 
     24 N          28.8149   27.6372   -0.7297 N.am      4 UNK        -0.4303 
     25 C          27.5327   27.9186   -0.9986 C.2       3 UNK         0.5044 
     26 O          26.9616   28.9422   -0.6226 O.2       3 UNK        -0.5152 
     27 CA         26.7434   26.8291   -1.7550 C.3       3 UNK         0.0319 
     28 CB         26.6805   27.1546   -3.2550 C.3       3 UNK        -0.2001 
     29 N          27.2976   25.4772   -1.5669 N.am      3 UNK        -0.4354 
     30 C          27.4022   24.8688   -0.3758 C.2       2 UNK         0.4964 
     31 O          26.9467   25.3486    0.6654 O.2       2 UNK        -0.5047 
     32 CA         28.2321   23.5777   -0.3239 C.3       2 UNK         0.0288 
     33 CB         29.7270   23.8951   -0.5304 C.3       2 UNK        -0.2113 
     34 N          28.0307   22.9638    0.9869 N.am      2 UNK        -0.4145 
     35 C          28.2054   21.7001    1.3951 C.2       1 UNK         0.5006 
     36 O          27.9043   21.3587    2.5401 O.2       1 UNK        -0.5103 
     37 C          26.7043   28.9027    3.4117 C.2       5 UNK         0.5055 
     38 O          26.6617   29.7118    4.3382 O.2       5 UNK        -0.5220 
     39 N          25.8726   28.9271    2.3581 N.am      6 UNK        -0.4450 
     40 CA         24.8203   29.9252    2.1458 C.3       6 UNK         0.0367 
     41 CB         23.8700   29.4479    1.0357 C.3       6 UNK        -0.1929 
     42 C          25.3906   31.3143    1.8180 C.2       6 UNK         0.5070 
     43 O          24.8342   32.3187    2.2617 O.2       6 UNK        -0.5237 
     44 N          26.5121   31.3446    1.0846 N.am      7 UNK        -0.4739 
     45 CA         27.2983   32.5514    0.8091 C.3       7 UNK         0.0276 
     46 CB         28.2790   32.2560   -0.3367 C.3       7 UNK        -0.1927 
     47 C          28.0621   33.0848    2.0387 C.2       7 UNK         0.5013 
     48 O          28.5189   34.2279    2.0012 O.2       7 UNK        -0.5193 
     49 N          28.1934   32.2542    3.0854 N.am      8 UNK        -0.4253 
     50 CA         28.9160   32.4866    4.3402 C.3       8 UNK         0.0242 
     51 CB         28.2359   33.5961    5.1706 C.3       8 UNK        -0.2000 
     52 C          30.4206   32.7270    4.1149 C.2       8 UNK         0.4948 
     53 O          30.9905   33.6642    4.6792 O.2       8 UNK        -0.5275 
     54 N          31.0340   31.8809    3.2767 N.am      9 UNK        -0.4246 
     55 CA         32.4628   31.9151    2.9643 C.3       9 UNK         0.0261 
     56 CB         32.7219   31.0294    1.7380 C.3       9 UNK        -0.1959 
     57 C          33.3189   31.4452    4.1528 C.2       9 UNK         0.5033 
     58 O          32.8869   30.5869    4.9282 O.2       9 UNK        -0.5390 
     59 N          34.5412   31.9825    4.2506 N.am      10 UNK        -0.4215 
     60 CA         35.5246   31.6718    5.2930 C.3       10 UNK         0.0240 
     61 CB         36.4970   32.8593    5.4291 C.3       10 UNK        -0.1982 
     62 C          36.2504   30.3358    5.0313 C.2       10 UNK         0.4970 
     63 O          37.4760   30.3123    4.9020 O.2       10 UNK        -0.4916 
     64 N          35.4765   29.2490    4.9450 N.am      11 UNK        -0.4279 
     65 CA         35.9606   27.8766    4.7202 C.3       11 UNK         0.1003 
     66 C          36.6426   27.2209    5.9567 C.2       11 UNK         0.5709 
     67 N          36.5408   27.7851    7.1548 N.am      11 UNK        -0.7358 
     68 O          37.2866   26.1828    5.8231 O.2       11 UNK        -0.4999 
     69 C69        34.8387   26.9658    4.1587 C.3       12 UNK        -0.0954 
     70 S70        34.1813   27.5730    2.5694 S.3       12 UNK        -0.2268 
     71 C71        33.8959   26.0091    1.6709 C.3       12 UNK         0.0203 
     72 H72        25.9610   17.7840    0.0009 H         1 UNK         0.0888 
     73 H73        24.6766   18.9595   -0.2866 H         1 UNK         0.0888 
     74 H74        25.5530   18.2573   -1.6492 H         1 UNK         0.0888 
     75 H75        27.8153   18.7649    0.7522 H         1 UNK         0.3017 
     76 H76        29.0235   21.0482   -0.5241 H         1 UNK         0.0873 
     77 H77        29.9311   19.7155    2.0858 H         1 UNK         0.0745 
     78 H78        30.1846   18.9708    0.5449 H         1 UNK         0.0745 
     79 H79        31.6234   20.7580    3.1386 H         1 UNK         0.0705 
     80 H80        33.2019   21.0428    2.4674 H         1 UNK         0.0705 
     81 H81        33.7593   23.3178    1.4717 H         1 UNK         0.1334 
     82 H82        31.6784   26.6339    3.2324 H         1 UNK         0.1417 
     83 H83        30.2470   22.6434    3.8341 H         1 UNK         0.1562 
     84 H84        29.8597   26.2983    4.6895 H         1 UNK         0.0748 
     85 H85        29.7044   24.7348    5.4515 H         1 UNK         0.0748 
     86 H86        27.0033   26.5628    5.0380 H         1 UNK         0.0940 
     87 H87        26.1879   26.2969    3.5237 H         1 UNK         0.0940 
     88 H88        28.5586   28.1180    4.1086 H         1 UNK         0.0703 
     89 H89        28.1518   26.8597    1.5502 H         1 UNK         0.3081 
     90 H90        29.8347   29.3926   -0.3309 H         1 UNK         0.0719 
     91 H91        31.0241   26.6942    0.4950 H         1 UNK         0.0809 
     92 H92        31.5112   27.6713   -0.8891 H         1 UNK         0.0809 
     93 H93        31.8040   28.2451    0.7394 H         1 UNK         0.0809 
     94 H94        29.1839   26.7763   -1.1030 H         1 UNK         0.2990 
     95 H95        25.7256   26.8318   -1.3590 H         1 UNK         0.0690 
     96 H96        26.0559   26.4394   -3.7907 H         1 UNK         0.0788 
     97 H97        27.6703   27.1477   -3.7132 H         1 UNK         0.0788 
     98 H98        26.2515   28.1441   -3.4208 H         1 UNK         0.0788 
     99 H99        27.6853   25.0275   -2.3846 H         1 UNK         0.2993 
    100 H100       27.8675   22.9218   -1.1146 H         1 UNK         0.0949 
    101 H101       30.3163   22.9913   -0.6623 H         1 UNK         0.0767 
    102 H102       29.8959   24.5011   -1.4209 H         1 UNK         0.0767 
    103 H103       30.1421   24.4361    0.3212 H         1 UNK         0.0767 
    104 H104       27.6472   23.6242    1.6547 H         1 UNK         0.3013 
    105 H105       26.0078   28.2501    1.6201 H         1 UNK         0.3121 
    106 H106       24.2465   30.0127    3.0710 H         1 UNK         0.0774 
    107 H107       24.3831   29.3382    0.0798 H         1 UNK         0.0815 
    108 H108       23.0577   30.1607    0.8877 H         1 UNK         0.0815 
    109 H109       23.4164   28.4888    1.2860 H         1 UNK         0.0815 
    110 H110       26.8481   30.4737    0.6836 H         1 UNK         0.2987 
    111 H111       26.6129   33.3366    0.4829 H         1 UNK         0.0949 
    112 H112       29.0398   31.5373   -0.0343 H         1 UNK         0.0806 
    113 H113       27.7656   31.8576   -1.2122 H         1 UNK         0.0806 
    114 H114       28.7977   33.1636   -0.6483 H         1 UNK         0.0806 
    115 H115       27.7932   31.3302    2.9896 H         1 UNK         0.3010 
    116 H116       28.8406   31.5583    4.9087 H         1 UNK         0.0829 
    117 H117       28.3086   34.5697    4.6851 H         1 UNK         0.0813 
    118 H118       27.1799   33.3785    5.3308 H         1 UNK         0.0813 
    119 H119       28.7006   33.6878    6.1530 H         1 UNK         0.0813 
    120 H120       30.4992   31.1086    2.8838 H         1 UNK         0.3038 
    121 H121       32.7322   32.9443    2.7174 H         1 UNK         0.0769 
    122 H122       32.4795   29.9907    1.9562 H         1 UNK         0.0811 
    123 H123       33.7697   31.0638    1.4370 H         1 UNK         0.0811 
    124 H124       32.1234   31.3426    0.8823 H         1 UNK         0.0811 
    125 H125       34.8347   32.6437    3.5454 H         1 UNK         0.3204 
    126 H126       35.0005   31.5675    6.2456 H         1 UNK         0.0748 
    127 H127       37.2206   32.6833    6.2264 H         1 UNK         0.0771 
    128 H128       37.0590   33.0308    4.5100 H         1 UNK         0.0771 
    129 H129       35.9670   33.7797    5.6752 H         1 UNK         0.0771 
    130 H130       34.4722   29.3718    5.0282 H         1 UNK         0.2980 
    131 H131       36.7397   27.9325    3.9575 H         1 UNK         0.0545 
    132 H132       36.9925   27.3515    7.9445 H         1 UNK         0.3459 
    133 H133       36.0132   28.6339    7.2773 H         1 UNK         0.3459 
    134 H134       35.2111   25.9500    4.0127 H         1 UNK         0.0616 
    135 H135       34.0127   26.8902    4.8680 H         1 UNK         0.0616 
    136 H136       34.8513   25.4894    1.5834 H         1 UNK         0.0634 
    137 H137       33.5827   26.2460    0.6539 H         1 UNK         0.0634 
@<TRIPOS>BOND
     1    1    2 1    
     2    1   72 1    
     3    1   73 1    
     4    1   74 1    
     5    2    3 2    
     6    2    4 am   BACKBONE|DICT|INTERRES
     7    4    5 1    
     8    4   75 1    
     9    5    6 1    
    10    5   35 1    
    11    5   76 1    
    12    6    7 1    
    13    6   77 1    
    14    6   78 1    
    15    7    8 1    
    16    8    9 1    
    17    8   79 1    
    18    8   80 1    
    19    9   10 ar   
    20    9   14 ar   
    21   10   11 ar   
    22   10   81 1    
    23   11   12 ar   
    24   11   71 1    
    25   12   13 ar   
    26   12   82 1    
    27   13   14 ar   
    28   13   15 1    
    29   14   83 1    
    30   15   16 1    
    31   15   84 1    
    32   15   85 1    
    33   16   17 1    
    34   17   18 1    
    35   17   86 1    
    36   17   87 1    
    37   18   19 1    
    38   18   37 1    
    39   18   88 1    
    40   19   20 am   BACKBONE|DICT|INTERRES
    41   19   89 1    
    42   20   21 2    
    43   20   22 1    
    44   22   23 1    
    45   22   24 1    
    46   22   90 1    
    47   23   91 1    
    48   23   92 1    
    49   23   93 1    
    50   24   25 am   BACKBONE|DICT|INTERRES
    51   24   94 1    
    52   25   26 2    
    53   25   27 1    
    54   27   28 1    
    55   27   29 1    
    56   27   95 1    
    57   28   96 1    
    58   28   97 1    
    59   28   98 1    
    60   29   30 am   BACKBONE|DICT|INTERRES
    61   29   99 1    
    62   30   31 2    
    63   30   32 1    
    64   32   33 1    
    65   32   34 1    
    66   32  100 1    
    67   33  101 1    
    68   33  102 1    
    69   33  103 1    
    70   34   35 am   BACKBONE|DICT|INTERRES
    71   34  104 1    
    72   35   36 2    
    73   37   38 2    
    74   37   39 am   BACKBONE|DICT|INTERRES
    75   39   40 1    
    76   39  105 1    
    77   40   41 1    
    78   40   42 1    
    79   40  106 1    
    80   41  107 1    
    81   41  108 1    
    82   41  109 1    
    83   42   43 2    
    84   42   44 am   BACKBONE|DICT|INTERRES
    85   44   45 1    
    86   44  110 1    
    87   45   46 1    
    88   45   47 1    
    89   45  111 1    
    90   46  112 1    
    91   46  113 1    
    92   46  114 1    
    93   47   48 2    
    94   47   49 am   BACKBONE|DICT|INTERRES
    95   49   50 1    
    96   49  115 1    
    97   50   51 1    
    98   50   52 1    
    99   50  116 1    
   100   51  117 1    
   101   51  118 1    
   102   51  119 1    
   103   52   53 2    
   104   52   54 am   BACKBONE|DICT|INTERRES
   105   54   55 1    
   106   54  120 1    
   107   55   56 1    
   108   55   57 1    
   109   55  121 1    
   110   56  122 1    
   111   56  123 1    
   112   56  124 1    
   113   57   58 2    
   114   57   59 am   BACKBONE|DICT|INTERRES
   115   59   60 1    
   116   59  125 1    
   117   60   61 1    
   118   60   62 1    
   119   60  126 1    
   120   61  127 1    
   121   61  128 1    
   122   61  129 1    
   123   62   63 2    
   124   62   64 am   BACKBONE|DICT|INTERRES
   125   64   65 1    
   126   64  130 1    
   127   65   66 1    
   128   65   69 1    
   129   65  131 1    
   130   66   67 am   BACKBONE|DICT|INTERRES
   131   66   68 2    
   132   67  132 1    
   133   67  133 1    
   134   69   70 1    
   135   69  134 1    
   136   69  135 1    
   137   70   71 1    
   138   71  136 1    
   139   71  137 1    
@<TRIPOS>SUBSTRUCTURE
     1 UNK         1 GROUP             0       ****    0 ROOT    
