@<TRIPOS>MOLECULE
3R136
137   139    1
SMALL
USER_CHARGES


@<TRIPOS>ATOM
      1 CA         28.3396   21.4101    4.4420 C.3       0 UNK        -0.1979 
      2 C          27.8747   21.7961    3.0464 C.2       0 UNK         0.4864 
      3 O          26.6923   21.6531    2.7294 O.2       0 UNK        -0.5359 
      4 N          28.7953   22.2864    2.2057 N.am      1 UNK        -0.4318 
      5 CA         28.5504   22.7007    0.8203 C.3       1 UNK         0.0824 
      6 C6         29.8408   22.6695   -0.0548 C.3       12 UNK        -0.0944 
      7 S7         30.8585   21.1667    0.1974 S.3       12 UNK        -0.2672 
      8 C8         32.5560   21.8175    0.4327 C.3       12 UNK         0.0333 
      9 C9         32.6420   23.0215    1.3679 C.ar      12 UNK        -0.0807 
     10 C10        33.2664   24.1957    0.9316 C.ar      12 UNK        -0.0894 
     11 C11        33.3090   25.3242    1.7539 C.ar      12 UNK        -0.0804 
     12 C12        32.6942   25.2811    3.0050 C.ar      12 UNK        -0.0824 
     13 C13        32.0668   24.1185    3.4599 C.ar      12 UNK        -0.0762 
     14 C14        32.0782   22.9789    2.6483 C.ar      12 UNK        -0.0782 
     15 C15        31.3600   24.0851    4.8142 C.3       12 UNK         0.0230 
     16 S16        30.4549   25.6190    5.2425 S.3       12 UNK        -0.2608 
     17 C17        29.4076   25.9194    3.7745 C.3       12 UNK        -0.0989 
     18 CA         29.5566   27.3705    3.2319 C.3       5 UNK         0.0716 
     19 N          29.4449   27.4200    1.7688 N.am      5 UNK        -0.4135 
     20 C          29.5902   28.5056    0.9931 C.2       4 UNK         0.5031 
     21 O          29.6572   29.6567    1.4201 O.2       4 UNK        -0.5229 
     22 CA         29.6506   28.2706   -0.5231 C.3       4 UNK         0.0329 
     23 CB         30.9437   27.5381   -0.9164 C.3       4 UNK        -0.2001 
     24 N          28.4916   27.4942   -0.9521 N.am      4 UNK        -0.4303 
     25 C          27.5416   27.9260   -1.7900 C.2       3 UNK         0.5044 
     26 O          27.6452   28.9429   -2.4767 O.2       3 UNK        -0.5152 
     27 CA         26.2371   27.1045   -1.8737 C.3       3 UNK         0.0319 
     28 CB         26.1885   26.3094   -3.1886 C.3       3 UNK        -0.2001 
     29 N          26.0104   26.1826   -0.7538 N.am      3 UNK        -0.4354 
     30 C          25.9257   26.5163    0.5426 C.2       2 UNK         0.4964 
     31 O          26.0011   27.6696    0.9702 O.2       2 UNK        -0.5047 
     32 CA         25.8303   25.3574    1.5496 C.3       2 UNK         0.0288 
     33 CB         24.3614   24.9755    1.7862 C.3       2 UNK        -0.2113 
     34 N          26.6026   24.1497    1.2164 N.am      2 UNK        -0.4145 
     35 C          27.8876   24.0933    0.8317 C.2       1 UNK         0.5006 
     36 O          28.5637   25.0904    0.5723 O.2       1 UNK        -0.5103 
     37 C          28.6092   28.3364    3.9728 C.2       5 UNK         0.5055 
     38 O          29.0281   28.9666    4.9451 O.2       5 UNK        -0.5220 
     39 N          27.3555   28.4267    3.5090 N.am      6 UNK        -0.4450 
     40 CA         26.3234   29.2777    4.1000 C.3       6 UNK         0.0367 
     41 CB         25.0056   28.4905    4.2010 C.3       6 UNK        -0.1929 
     42 C          26.1250   30.5585    3.2807 C.2       6 UNK         0.5070 
     43 O          25.9477   31.6260    3.8675 O.2       6 UNK        -0.5237 
     44 N          26.1384   30.4342    1.9461 N.am      7 UNK        -0.4739 
     45 CA         25.8639   31.5328    1.0177 C.3       7 UNK         0.0276 
     46 CB         25.5804   30.9560   -0.3755 C.3       7 UNK        -0.1927 
     47 C          26.9769   32.5925    0.9429 C.2       7 UNK         0.5013 
     48 O          26.6633   33.7549    0.6802 O.2       7 UNK        -0.5193 
     49 N          28.2364   32.1894    1.1584 N.am      8 UNK        -0.4253 
     50 CA         29.4023   33.0702    1.1485 C.3       8 UNK         0.0242 
     51 CB         30.3649   32.6654    0.0140 C.3       8 UNK        -0.2000 
     52 C          30.0637   33.0527    2.5310 C.2       8 UNK         0.4948 
     53 O          29.8552   33.9892    3.3038 O.2       8 UNK        -0.5275 
     54 N          30.8428   32.0052    2.8231 N.am      9 UNK        -0.4246 
     55 CA         31.6119   31.8292    4.0532 C.3       9 UNK         0.0261 
     56 CB         32.7646   32.8533    4.1283 C.3       9 UNK        -0.1959 
     57 C          32.1747   30.4050    4.0930 C.2       9 UNK         0.5033 
     58 O          32.3354   29.7784    3.0422 O.2       9 UNK        -0.5390 
     59 N          32.4994   29.9350    5.3035 N.am      10 UNK        -0.4215 
     60 CA         33.1361   28.6403    5.5409 C.3       10 UNK         0.0240 
     61 CB         33.1106   28.3250    7.0448 C.3       10 UNK        -0.1982 
     62 C          34.5768   28.6017    5.0010 C.2       10 UNK         0.4970 
     63 O          35.3083   29.5858    5.1344 O.2       10 UNK        -0.4916 
     64 N          34.9549   27.4552    4.4291 N.am      11 UNK        -0.4279 
     65 CA         36.3064   27.1560    3.9448 C.3       11 UNK         0.1003 
     66 C          37.2741   26.8612    5.1237 C.2       11 UNK         0.5709 
     67 N          38.5489   27.1951    4.9762 N.am      11 UNK        -0.7358 
     68 O          36.8905   26.3014    6.1499 O.2       11 UNK        -0.4999 
     69 C69        36.2744   25.9763    2.9353 C.3       12 UNK        -0.0954 
     70 S70        35.8039   26.4837    1.2447 S.3       12 UNK        -0.2268 
     71 C71        33.9852   26.6047    1.2862 C.3       12 UNK         0.0203 
     72 H72        27.7976   20.5314    4.7910 H         1 UNK         0.0888 
     73 H73        29.4030   21.1730    4.4600 H         1 UNK         0.0888 
     74 H74        28.1526   22.2258    5.1401 H         1 UNK         0.0888 
     75 H75        29.7494   22.3917    2.5128 H         1 UNK         0.3017 
     76 H76        27.8416   21.9996    0.3740 H         1 UNK         0.0873 
     77 H77        30.4583   23.5500    0.1201 H         1 UNK         0.0745 
     78 H78        29.5686   22.7186   -1.1104 H         1 UNK         0.0745 
     79 H79        32.9581   22.0695   -0.5498 H         1 UNK         0.0705 
     80 H80        33.1875   21.0194    0.8249 H         1 UNK         0.0705 
     81 H81        33.7169   24.2383   -0.0507 H         1 UNK         0.1334 
     82 H82        32.6811   26.1661    3.6180 H         1 UNK         0.1417 
     83 H83        31.6223   22.0620    2.9948 H         1 UNK         0.1562 
     84 H84        32.1020   23.8910    5.5896 H         1 UNK         0.0748 
     85 H85        30.6530   23.2567    4.8528 H         1 UNK         0.0748 
     86 H86        28.3714   25.6768    4.0184 H         1 UNK         0.0940 
     87 H87        29.6899   25.2014    3.0059 H         1 UNK         0.0940 
     88 H88        30.5722   27.7119    3.4394 H         1 UNK         0.0703 
     89 H89        29.3255   26.5205    1.3087 H         1 UNK         0.3081 
     90 H90        29.6556   29.2508   -1.0049 H         1 UNK         0.0719 
     91 H91        31.0086   27.4083   -1.9966 H         1 UNK         0.0809 
     92 H92        31.8181   28.1110   -0.6061 H         1 UNK         0.0809 
     93 H93        31.0141   26.5505   -0.4577 H         1 UNK         0.0809 
     94 H94        28.3320   26.6199   -0.4591 H         1 UNK         0.2990 
     95 H95        25.4127   27.8204   -1.8741 H         1 UNK         0.0690 
     96 H96        26.3181   26.9675   -4.0491 H         1 UNK         0.0788 
     97 H97        25.2307   25.8037   -3.3130 H         1 UNK         0.0788 
     98 H98        26.9765   25.5564   -3.2329 H         1 UNK         0.0788 
     99 H99        25.9558   25.2020   -0.9873 H         1 UNK         0.2993 
    100 H100       26.2325   25.7280    2.4940 H         1 UNK         0.0949 
    101 H101       23.9093   24.5399    0.8943 H         1 UNK         0.0767 
    102 H102       24.2652   24.2536    2.5977 H         1 UNK         0.0767 
    103 H103       23.7677   25.8489    2.0611 H         1 UNK         0.0767 
    104 H104       26.1819   23.2678    1.4906 H         1 UNK         0.3013 
    105 H105       27.1062   27.9437    2.6540 H         1 UNK         0.3121 
    106 H106       26.6088   29.5730    5.1122 H         1 UNK         0.0774 
    107 H107       24.6294   28.1917    3.2223 H         1 UNK         0.0815 
    108 H108       24.2300   29.0933    4.6753 H         1 UNK         0.0815 
    109 H109       25.1277   27.5895    4.8022 H         1 UNK         0.0815 
    110 H110       26.2335   29.5074    1.5414 H         1 UNK         0.2987 
    111 H111       24.9585   32.0383    1.3615 H         1 UNK         0.0949 
    112 H112       26.4692   30.4847   -0.7900 H         1 UNK         0.0806 
    113 H113       24.7830   30.2129   -0.3500 H         1 UNK         0.0806 
    114 H114       25.2750   31.7405   -1.0692 H         1 UNK         0.0806 
    115 H115       28.4204   31.2157    1.3835 H         1 UNK         0.3010 
    116 H116       29.1022   34.1034    0.9611 H         1 UNK         0.0829 
    117 H117       29.8940   32.7959   -0.9603 H         1 UNK         0.0813 
    118 H118       31.2611   33.2871    0.0249 H         1 UNK         0.0813 
    119 H119       30.6877   31.6273    0.0843 H         1 UNK         0.0813 
    120 H120       30.8881   31.2136    2.1852 H         1 UNK         0.3038 
    121 H121       30.9395   31.9620    4.9034 H         1 UNK         0.0769 
    122 H122       33.4213   32.7783    3.2607 H         1 UNK         0.0811 
    123 H123       33.3790   32.6928    5.0151 H         1 UNK         0.0811 
    124 H124       32.3954   33.8773    4.1804 H         1 UNK         0.0811 
    125 H125       32.3698   30.5294    6.1090 H         1 UNK         0.3204 
    126 H126       32.5391   27.8873    5.0268 H         1 UNK         0.0748 
    127 H127       33.5565   27.3499    7.2464 H         1 UNK         0.0771 
    128 H128       33.6674   29.0639    7.6228 H         1 UNK         0.0771 
    129 H129       32.0894   28.2964    7.4259 H         1 UNK         0.0771 
    130 H130       34.3195   26.6742    4.4305 H         1 UNK         0.2980 
    131 H131       36.6836   28.0428    3.4308 H         1 UNK         0.0545 
    132 H132       39.1960   26.9993    5.7240 H         1 UNK         0.3459 
    133 H133       38.8773   27.6414    4.1338 H         1 UNK         0.3459 
    134 H134       37.2670   25.5322    2.8370 H         1 UNK         0.0616 
    135 H135       35.6306   25.1672    3.2833 H         1 UNK         0.0616 
    136 H136       33.6943   27.4525    1.9083 H         1 UNK         0.0634 
    137 H137       33.6395   26.8395    0.2796 H         1 UNK         0.0634 
@<TRIPOS>BOND
     1    1    2 1    
     2    1   72 1    
     3    1   73 1    
     4    1   74 1    
     5    2    3 2    
     6    2    4 am   BACKBONE|DICT|INTERRES
     7    4    5 1    
     8    4   75 1    
     9    5    6 1    
    10    5   35 1    
    11    5   76 1    
    12    6    7 1    
    13    6   77 1    
    14    6   78 1    
    15    7    8 1    
    16    8    9 1    
    17    8   79 1    
    18    8   80 1    
    19    9   10 ar   
    20    9   14 ar   
    21   10   11 ar   
    22   10   81 1    
    23   11   12 ar   
    24   11   71 1    
    25   12   13 ar   
    26   12   82 1    
    27   13   14 ar   
    28   13   15 1    
    29   14   83 1    
    30   15   16 1    
    31   15   84 1    
    32   15   85 1    
    33   16   17 1    
    34   17   18 1    
    35   17   86 1    
    36   17   87 1    
    37   18   19 1    
    38   18   37 1    
    39   18   88 1    
    40   19   20 am   BACKBONE|DICT|INTERRES
    41   19   89 1    
    42   20   21 2    
    43   20   22 1    
    44   22   23 1    
    45   22   24 1    
    46   22   90 1    
    47   23   91 1    
    48   23   92 1    
    49   23   93 1    
    50   24   25 am   BACKBONE|DICT|INTERRES
    51   24   94 1    
    52   25   26 2    
    53   25   27 1    
    54   27   28 1    
    55   27   29 1    
    56   27   95 1    
    57   28   96 1    
    58   28   97 1    
    59   28   98 1    
    60   29   30 am   BACKBONE|DICT|INTERRES
    61   29   99 1    
    62   30   31 2    
    63   30   32 1    
    64   32   33 1    
    65   32   34 1    
    66   32  100 1    
    67   33  101 1    
    68   33  102 1    
    69   33  103 1    
    70   34   35 am   BACKBONE|DICT|INTERRES
    71   34  104 1    
    72   35   36 2    
    73   37   38 2    
    74   37   39 am   BACKBONE|DICT|INTERRES
    75   39   40 1    
    76   39  105 1    
    77   40   41 1    
    78   40   42 1    
    79   40  106 1    
    80   41  107 1    
    81   41  108 1    
    82   41  109 1    
    83   42   43 2    
    84   42   44 am   BACKBONE|DICT|INTERRES
    85   44   45 1    
    86   44  110 1    
    87   45   46 1    
    88   45   47 1    
    89   45  111 1    
    90   46  112 1    
    91   46  113 1    
    92   46  114 1    
    93   47   48 2    
    94   47   49 am   BACKBONE|DICT|INTERRES
    95   49   50 1    
    96   49  115 1    
    97   50   51 1    
    98   50   52 1    
    99   50  116 1    
   100   51  117 1    
   101   51  118 1    
   102   51  119 1    
   103   52   53 2    
   104   52   54 am   BACKBONE|DICT|INTERRES
   105   54   55 1    
   106   54  120 1    
   107   55   56 1    
   108   55   57 1    
   109   55  121 1    
   110   56  122 1    
   111   56  123 1    
   112   56  124 1    
   113   57   58 2    
   114   57   59 am   BACKBONE|DICT|INTERRES
   115   59   60 1    
   116   59  125 1    
   117   60   61 1    
   118   60   62 1    
   119   60  126 1    
   120   61  127 1    
   121   61  128 1    
   122   61  129 1    
   123   62   63 2    
   124   62   64 am   BACKBONE|DICT|INTERRES
   125   64   65 1    
   126   64  130 1    
   127   65   66 1    
   128   65   69 1    
   129   65  131 1    
   130   66   67 am   BACKBONE|DICT|INTERRES
   131   66   68 2    
   132   67  132 1    
   133   67  133 1    
   134   69   70 1    
   135   69  134 1    
   136   69  135 1    
   137   70   71 1    
   138   71  136 1    
   139   71  137 1    
@<TRIPOS>SUBSTRUCTURE
     1 UNK         1 GROUP             0       ****    0 ROOT    
