@<TRIPOS>MOLECULE
3R136
137   139    1
SMALL
USER_CHARGES


@<TRIPOS>ATOM
      1 CA         32.2845   20.2930   -1.3764 C.3       0 UNK        -0.1979 
      2 C          31.3736   21.4896   -1.1402 C.2       0 UNK         0.4864 
      3 O          30.2245   21.4692   -1.5838 O.2       0 UNK        -0.5359 
      4 N          31.8844   22.5109   -0.4348 N.am      1 UNK        -0.4318 
      5 CA         31.2525   23.8027   -0.1236 C.3       1 UNK         0.0824 
      6 C6         29.8245   23.6707    0.4890 C.3       12 UNK        -0.0944 
      7 S7         29.5576   24.7983    1.8943 S.3       12 UNK        -0.2672 
      8 C8         30.0337   23.6741    3.2420 C.3       12 UNK         0.0333 
      9 C9         30.0262   24.3624    4.5956 C.ar      12 UNK        -0.0807 
     10 C10        31.2150   24.8470    5.1462 C.ar      12 UNK        -0.0894 
     11 C11        31.2223   25.4249    6.4191 C.ar      12 UNK        -0.0804 
     12 C12        30.0247   25.5380    7.1331 C.ar      12 UNK        -0.0824 
     13 C13        28.8275   25.0547    6.5927 C.ar      12 UNK        -0.0762 
     14 C14        28.8387   24.4644    5.3236 C.ar      12 UNK        -0.0782 
     15 C15        27.5432   25.1020    7.4140 C.3       12 UNK         0.0230 
     16 S16        26.0991   25.6809    6.4636 S.3       12 UNK        -0.2608 
     17 C17        26.3602   27.4860    6.4319 C.3       12 UNK        -0.0989 
     18 CA         27.0490   28.0114    5.1446 C.3       5 UNK         0.0716 
     19 N          26.4644   27.4362    3.9227 N.am      5 UNK        -0.4135 
     20 C          26.8069   27.7208    2.6589 C.2       4 UNK         0.5031 
     21 O          27.6091   28.6000    2.3390 O.2       4 UNK        -0.5229 
     22 CA         26.0888   26.9250    1.5636 C.3       4 UNK         0.0329 
     23 CB         24.5987   27.3196    1.4902 C.3       4 UNK        -0.2001 
     24 N          26.7453   27.1866    0.2835 N.am      4 UNK        -0.4303 
     25 C          26.5975   26.4632   -0.8327 C.2       3 UNK         0.5044 
     26 O          25.9012   25.4508   -0.9121 O.2       3 UNK        -0.5152 
     27 CA         27.3713   26.9412   -2.0652 C.3       3 UNK         0.0319 
     28 CB         26.8312   28.2921   -2.5782 C.3       3 UNK        -0.2001 
     29 N          28.7975   27.0055   -1.7547 N.am      3 UNK        -0.4354 
     30 C          29.7861   27.2019   -2.6371 C.2       2 UNK         0.4964 
     31 O          29.6145   27.4154   -3.8378 O.2       2 UNK        -0.5047 
     32 CA         31.2203   27.1156   -2.0858 C.3       2 UNK         0.0288 
     33 CB         31.6516   28.4764   -1.5214 C.3       2 UNK        -0.2113 
     34 N          31.3655   26.0681   -1.0655 N.am      2 UNK        -0.4145 
     35 C          31.2654   24.7583   -1.3357 C.2       1 UNK         0.5006 
     36 O          31.1593   24.3155   -2.4825 O.2       1 UNK        -0.5103 
     37 C          27.0568   29.5569    5.1772 C.2       5 UNK         0.5055 
     38 O          28.0013   30.1491    5.7002 O.2       5 UNK        -0.5220 
     39 N          25.9974   30.1729    4.6351 N.am      6 UNK        -0.4450 
     40 CA         25.8114   31.6245    4.5651 C.3       6 UNK         0.0367 
     41 CB         24.3505   31.9449    4.9279 C.3       6 UNK        -0.1929 
     42 C          26.1622   32.2090    3.1836 C.2       6 UNK         0.5070 
     43 O          26.0729   33.4257    3.0150 O.2       6 UNK        -0.5237 
     44 N          26.5346   31.3609    2.2169 N.am      7 UNK        -0.4739 
     45 CA         26.8347   31.7349    0.8367 C.3       7 UNK         0.0276 
     46 CB         25.8786   30.9789   -0.1030 C.3       7 UNK        -0.1927 
     47 C          28.3103   31.4215    0.5675 C.2       7 UNK         0.5013 
     48 O          28.6257   30.4382   -0.1060 O.2       7 UNK        -0.5193 
     49 N          29.1885   32.2374    1.1684 N.am      8 UNK        -0.4253 
     50 CA         30.6596   32.1845    1.1630 C.3       8 UNK         0.0242 
     51 CB         31.2288   32.2967   -0.2654 C.3       8 UNK        -0.2000 
     52 C          31.2659   30.9778    1.9023 C.2       8 UNK         0.4948 
     53 O          32.2622   31.1503    2.6065 O.2       8 UNK        -0.5275 
     54 N          30.6691   29.7920    1.7314 N.am      9 UNK        -0.4246 
     55 CA         30.9793   28.4833    2.3193 C.3       9 UNK         0.0261 
     56 CB         30.7901   28.5144    3.8426 C.3       9 UNK        -0.1959 
     57 C          32.3517   27.8950    1.9443 C.2       9 UNK         0.5033 
     58 O          32.4080   26.7239    1.5696 O.2       9 UNK        -0.5390 
     59 N          33.4117   28.7111    2.0208 N.am      10 UNK        -0.4215 
     60 CA         34.8287   28.3761    1.8339 C.3       10 UNK         0.0240 
     61 CB         35.1233   27.9202    0.3883 C.3       10 UNK        -0.1982 
     62 C          35.3230   27.3838    2.9028 C.2       10 UNK         0.4970 
     63 O          35.8479   26.3183    2.5737 O.2       10 UNK        -0.4916 
     64 N          35.1315   27.7638    4.1726 N.am      11 UNK        -0.4279 
     65 CA         35.5114   26.9801    5.3606 C.3       11 UNK         0.1003 
     66 C          37.0438   26.8517    5.6050 C.2       11 UNK         0.5709 
     67 N          37.8925   27.6431    4.9591 N.am      11 UNK        -0.7358 
     68 O          37.4698   26.0121    6.3946 O.2       11 UNK        -0.4999 
     69 C69        34.7964   27.4926    6.6407 C.3       12 UNK        -0.0954 
     70 S70        32.9836   27.5480    6.4624 S.3       12 UNK        -0.2268 
     71 C71        32.5367   25.8829    7.0303 C.3       12 UNK         0.0203 
     72 H72        31.8375   19.3925   -0.9559 H         1 UNK         0.0888 
     73 H73        32.4264   20.1359   -2.4453 H         1 UNK         0.0888 
     74 H74        33.2653   20.4283   -0.9210 H         1 UNK         0.0888 
     75 H75        32.8436   22.4370   -0.1253 H         1 UNK         0.3017 
     76 H76        31.9154   24.2383    0.6261 H         1 UNK         0.0873 
     77 H77        29.0438   23.8439   -0.2550 H         1 UNK         0.0745 
     78 H78        29.6474   22.6542    0.8433 H         1 UNK         0.0745 
     79 H79        31.0253   23.2676    3.0356 H         1 UNK         0.0705 
     80 H80        29.3515   22.8226    3.2602 H         1 UNK         0.0705 
     81 H81        32.1393   24.7611    4.5907 H         1 UNK         0.1334 
     82 H82        30.0321   25.9772    8.1215 H         1 UNK         0.1417 
     83 H83        27.9232   24.0689    4.9054 H         1 UNK         0.1562 
     84 H84        27.6650   25.7232    8.3026 H         1 UNK         0.0748 
     85 H85        27.3344   24.0940    7.7747 H         1 UNK         0.0748 
     86 H86        26.9316   27.7825    7.3139 H         1 UNK         0.0940 
     87 H87        25.3759   27.9442    6.5513 H         1 UNK         0.0940 
     88 H88        28.0895   27.6817    5.1666 H         1 UNK         0.0703 
     89 H89        25.7956   26.6969    4.0851 H         1 UNK         0.3081 
     90 H90        26.1830   25.8623    1.7973 H         1 UNK         0.0719 
     91 H91        24.4727   28.3807    1.2724 H         1 UNK         0.0809 
     92 H92        24.0729   26.7583    0.7180 H         1 UNK         0.0809 
     93 H93        24.0856   27.1164    2.4307 H         1 UNK         0.0809 
     94 H94        27.3577   27.9953    0.2942 H         1 UNK         0.2990 
     95 H95        27.2295   26.1934   -2.8483 H         1 UNK         0.0690 
     96 H96        27.1758   28.4995   -3.5910 H         1 UNK         0.0788 
     97 H97        27.1546   29.1185   -1.9473 H         1 UNK         0.0788 
     98 H98        25.7406   28.3006   -2.6048 H         1 UNK         0.0788 
     99 H99        29.0464   26.8016   -0.7967 H         1 UNK         0.2993 
    100 H100       31.8836   26.8682   -2.9178 H         1 UNK         0.0949 
    101 H101       32.6585   28.4393   -1.1106 H         1 UNK         0.0767 
    102 H102       31.6472   29.2383   -2.3020 H         1 UNK         0.0767 
    103 H103       30.9746   28.8156   -0.7396 H         1 UNK         0.0767 
    104 H104       31.5436   26.3574   -0.1059 H         1 UNK         0.3013 
    105 H105       25.2691   29.6046    4.2271 H         1 UNK         0.3121 
    106 H106       26.4557   32.1201    5.2944 H         1 UNK         0.0774 
    107 H107       24.1750   33.0216    4.9367 H         1 UNK         0.0815 
    108 H108       23.6509   31.5071    4.2148 H         1 UNK         0.0815 
    109 H109       24.0973   31.5713    5.9202 H         1 UNK         0.0815 
    110 H110       26.7190   30.3904    2.4530 H         1 UNK         0.2987 
    111 H111       26.6889   32.8047    0.6713 H         1 UNK         0.0949 
    112 H112       25.9610   29.8998    0.0191 H         1 UNK         0.0806 
    113 H113       24.8413   31.2558    0.0846 H         1 UNK         0.0806 
    114 H114       26.0929   31.2116   -1.1467 H         1 UNK         0.0806 
    115 H115       28.7983   32.9715    1.7442 H         1 UNK         0.3010 
    116 H116       30.9834   33.0712    1.7106 H         1 UNK         0.0829 
    117 H117       30.8749   33.1997   -0.7627 H         1 UNK         0.0813 
    118 H118       32.3185   32.3431   -0.2469 H         1 UNK         0.0813 
    119 H119       30.9539   31.4438   -0.8860 H         1 UNK         0.0813 
    120 H120       29.8653   29.7976    1.1056 H         1 UNK         0.3038 
    121 H121       30.2268   27.8047    1.9154 H         1 UNK         0.0769 
    122 H122       30.8532   27.5105    4.2612 H         1 UNK         0.0811 
    123 H123       29.8130   28.9145    4.1037 H         1 UNK         0.0811 
    124 H124       31.5420   29.1299    4.3364 H         1 UNK         0.0811 
    125 H125       33.2091   29.6674    2.3144 H         1 UNK         0.3204 
    126 H126       35.3849   29.3002    1.9980 H         1 UNK         0.0748 
    127 H127       36.1863   27.7161    0.2542 H         1 UNK         0.0771 
    128 H128       34.5848   27.0097    0.1245 H         1 UNK         0.0771 
    129 H129       34.8554   28.6940   -0.3303 H         1 UNK         0.0771 
    130 H130       34.6792   28.6466    4.3567 H         1 UNK         0.2980 
    131 H131       35.1616   25.9614    5.1828 H         1 UNK         0.0545 
    132 H132       38.8817   27.5452    5.1253 H         1 UNK         0.3459 
    133 H133       37.5553   28.3360    4.3111 H         1 UNK         0.3459 
    134 H134       35.0436   26.8702    7.5030 H         1 UNK         0.0616 
    135 H135       35.1390   28.4993    6.8865 H         1 UNK         0.0616 
    136 H136       32.4812   25.8776    8.1199 H         1 UNK         0.0634 
    137 H137       33.3226   25.1763    6.7590 H         1 UNK         0.0634 
@<TRIPOS>BOND
     1    1    2 1    
     2    1   72 1    
     3    1   73 1    
     4    1   74 1    
     5    2    3 2    
     6    2    4 am   BACKBONE|DICT|INTERRES
     7    4    5 1    
     8    4   75 1    
     9    5    6 1    
    10    5   35 1    
    11    5   76 1    
    12    6    7 1    
    13    6   77 1    
    14    6   78 1    
    15    7    8 1    
    16    8    9 1    
    17    8   79 1    
    18    8   80 1    
    19    9   10 ar   
    20    9   14 ar   
    21   10   11 ar   
    22   10   81 1    
    23   11   12 ar   
    24   11   71 1    
    25   12   13 ar   
    26   12   82 1    
    27   13   14 ar   
    28   13   15 1    
    29   14   83 1    
    30   15   16 1    
    31   15   84 1    
    32   15   85 1    
    33   16   17 1    
    34   17   18 1    
    35   17   86 1    
    36   17   87 1    
    37   18   19 1    
    38   18   37 1    
    39   18   88 1    
    40   19   20 am   BACKBONE|DICT|INTERRES
    41   19   89 1    
    42   20   21 2    
    43   20   22 1    
    44   22   23 1    
    45   22   24 1    
    46   22   90 1    
    47   23   91 1    
    48   23   92 1    
    49   23   93 1    
    50   24   25 am   BACKBONE|DICT|INTERRES
    51   24   94 1    
    52   25   26 2    
    53   25   27 1    
    54   27   28 1    
    55   27   29 1    
    56   27   95 1    
    57   28   96 1    
    58   28   97 1    
    59   28   98 1    
    60   29   30 am   BACKBONE|DICT|INTERRES
    61   29   99 1    
    62   30   31 2    
    63   30   32 1    
    64   32   33 1    
    65   32   34 1    
    66   32  100 1    
    67   33  101 1    
    68   33  102 1    
    69   33  103 1    
    70   34   35 am   BACKBONE|DICT|INTERRES
    71   34  104 1    
    72   35   36 2    
    73   37   38 2    
    74   37   39 am   BACKBONE|DICT|INTERRES
    75   39   40 1    
    76   39  105 1    
    77   40   41 1    
    78   40   42 1    
    79   40  106 1    
    80   41  107 1    
    81   41  108 1    
    82   41  109 1    
    83   42   43 2    
    84   42   44 am   BACKBONE|DICT|INTERRES
    85   44   45 1    
    86   44  110 1    
    87   45   46 1    
    88   45   47 1    
    89   45  111 1    
    90   46  112 1    
    91   46  113 1    
    92   46  114 1    
    93   47   48 2    
    94   47   49 am   BACKBONE|DICT|INTERRES
    95   49   50 1    
    96   49  115 1    
    97   50   51 1    
    98   50   52 1    
    99   50  116 1    
   100   51  117 1    
   101   51  118 1    
   102   51  119 1    
   103   52   53 2    
   104   52   54 am   BACKBONE|DICT|INTERRES
   105   54   55 1    
   106   54  120 1    
   107   55   56 1    
   108   55   57 1    
   109   55  121 1    
   110   56  122 1    
   111   56  123 1    
   112   56  124 1    
   113   57   58 2    
   114   57   59 am   BACKBONE|DICT|INTERRES
   115   59   60 1    
   116   59  125 1    
   117   60   61 1    
   118   60   62 1    
   119   60  126 1    
   120   61  127 1    
   121   61  128 1    
   122   61  129 1    
   123   62   63 2    
   124   62   64 am   BACKBONE|DICT|INTERRES
   125   64   65 1    
   126   64  130 1    
   127   65   66 1    
   128   65   69 1    
   129   65  131 1    
   130   66   67 am   BACKBONE|DICT|INTERRES
   131   66   68 2    
   132   67  132 1    
   133   67  133 1    
   134   69   70 1    
   135   69  134 1    
   136   69  135 1    
   137   70   71 1    
   138   71  136 1    
   139   71  137 1    
@<TRIPOS>SUBSTRUCTURE
     1 UNK         1 GROUP             0       ****    0 ROOT    
