@<TRIPOS>MOLECULE
3R136
137   139    1
SMALL
USER_CHARGES


@<TRIPOS>ATOM
      1 CA         29.7264   23.0622   -3.7991 C.3       0 UNK        -0.1979 
      2 C          29.6968   23.4666   -2.3334 C.2       0 UNK         0.4864 
      3 O          29.5890   24.6563   -2.0345 O.2       0 UNK        -0.5359 
      4 N          29.7798   22.4858   -1.4217 N.am      1 UNK        -0.4318 
      5 CA         29.7913   22.6633    0.0371 C.3       1 UNK         0.0824 
      6 C6         29.9079   21.3097    0.7837 C.3       12 UNK        -0.0944 
      7 S7         31.6499   20.7986    0.9312 S.3       12 UNK        -0.2672 
      8 C8         31.9277   20.9440    2.7298 C.3       12 UNK         0.0333 
      9 C9         31.6284   22.3381    3.2732 C.ar      12 UNK        -0.0807 
     10 C10        32.4357   23.4211    2.9198 C.ar      12 UNK        -0.0894 
     11 C11        32.1832   24.6936    3.4395 C.ar      12 UNK        -0.0804 
     12 C12        31.1175   24.8810    4.3253 C.ar      12 UNK        -0.0824 
     13 C13        30.2894   23.8078    4.6822 C.ar      12 UNK        -0.0762 
     14 C14        30.5581   22.5408    4.1511 C.ar      12 UNK        -0.0782 
     15 C15        29.1218   23.9521    5.6636 C.3       12 UNK         0.0230 
     16 S16        28.4160   25.6301    5.8432 S.3       12 UNK        -0.2608 
     17 C17        27.7726   25.9535    4.1675 C.3       12 UNK        -0.0989 
     18 CA         28.3865   27.2487    3.5658 C.3       5 UNK         0.0716 
     19 N          28.9485   27.0613    2.2266 N.am      5 UNK        -0.4135 
     20 C          29.7419   27.9483    1.6077 C.2       4 UNK         0.5031 
     21 O          30.1612   28.9783    2.1372 O.2       4 UNK        -0.5229 
     22 CA         30.1123   27.6622    0.1429 C.3       4 UNK         0.0329 
     23 CB         31.3273   26.7282    0.0537 C.3       4 UNK        -0.2001 
     24 N          28.9994   27.1054   -0.6285 N.am      4 UNK        -0.4303 
     25 C          27.8577   27.7604   -0.8845 C.2       3 UNK         0.5044 
     26 O          27.6349   28.9151   -0.5244 O.2       3 UNK        -0.5152 
     27 CA         26.7611   26.9851   -1.6301 C.3       3 UNK         0.0319 
     28 CB         27.0451   26.9431   -3.1400 C.3       3 UNK        -0.2001 
     29 N          26.5964   25.6249   -1.1167 N.am      3 UNK        -0.4354 
     30 C          26.1475   25.3249    0.1108 C.2       2 UNK         0.4964 
     31 O          25.7983   26.1625    0.9431 O.2       2 UNK        -0.5047 
     32 CA         26.1417   23.8348    0.4911 C.3       2 UNK         0.0288 
     33 CB         24.9288   23.1171   -0.1224 C.3       2 UNK        -0.2113 
     34 N          27.3754   23.1410    0.1068 N.am      2 UNK        -0.4145 
     35 C          28.5933   23.4730    0.5605 C.2       1 UNK         0.5006 
     36 O          28.8007   24.4042    1.3351 O.2       1 UNK        -0.5103 
     37 C          27.3960   28.4274    3.6009 C.2       5 UNK         0.5055 
     38 O          27.5307   29.2990    4.4624 O.2       5 UNK        -0.5220 
     39 N          26.4527   28.4522    2.6438 N.am      6 UNK        -0.4450 
     40 CA         25.4523   29.5123    2.4723 C.3       6 UNK         0.0367 
     41 CB         24.4909   29.1459    1.3313 C.3       6 UNK        -0.1929 
     42 C          26.0660   30.9023    2.2364 C.2       6 UNK         0.5070 
     43 O          25.5475   31.8873    2.7619 O.2       6 UNK        -0.5237 
     44 N          27.1979   30.9588    1.5226 N.am      7 UNK        -0.4739 
     45 CA         28.0382   32.1448    1.3224 C.3       7 UNK         0.0276 
     46 CB         28.9167   31.9163    0.0784 C.3       7 UNK        -0.1927 
     47 C          28.8694   32.5297    2.5700 C.2       7 UNK         0.5013 
     48 O          30.0309   32.9168    2.4339 O.2       7 UNK        -0.5193 
     49 N          28.2544   32.4286    3.7581 N.am      8 UNK        -0.4253 
     50 CA         28.7799   32.7470    5.0901 C.3       8 UNK         0.0242 
     51 CB         28.9267   34.2754    5.2520 C.3       8 UNK        -0.2000 
     52 C          30.0682   31.9781    5.4456 C.2       8 UNK         0.4948 
     53 O          30.9960   32.5741    5.9966 O.2       8 UNK        -0.5275 
     54 N          30.0923   30.6726    5.1283 N.am      9 UNK        -0.4246 
     55 CA         31.2198   29.7437    5.2923 C.3       9 UNK         0.0261 
     56 CB         31.4728   29.4420    6.7839 C.3       9 UNK        -0.1959 
     57 C          32.4789   30.2313    4.5524 C.2       9 UNK         0.5033 
     58 O          33.4988   30.5249    5.1802 O.2       9 UNK        -0.5390 
     59 N          32.3732   30.3124    3.2191 N.am      10 UNK        -0.4215 
     60 CA         33.3809   30.8605    2.3019 C.3       10 UNK         0.0240 
     61 CB         32.8272   30.8182    0.8687 C.3       10 UNK        -0.1982 
     62 C          34.7636   30.1843    2.3626 C.2       10 UNK         0.4970 
     63 O          35.7581   30.8214    2.0131 O.2       10 UNK        -0.4916 
     64 N          34.8048   28.9243    2.8100 N.am      11 UNK        -0.4279 
     65 CA         36.0316   28.1720    3.1014 C.3       11 UNK         0.1003 
     66 C          36.7631   28.5913    4.4123 C.2       11 UNK         0.5709 
     67 N          36.1861   29.4233    5.2723 N.am      11 UNK        -0.7358 
     68 O          37.8917   28.1638    4.6442 O.2       11 UNK        -0.4999 
     69 C69        35.7884   26.6423    3.0197 C.3       12 UNK        -0.0954 
     70 S70        34.4934   26.0214    4.1529 S.3       12 UNK        -0.2268 
     71 C71        33.0671   25.8605    3.0356 C.3       12 UNK         0.0203 
     72 H72        28.8163   23.3945   -4.2974 H         1 UNK         0.0888 
     73 H73        30.5766   23.5273   -4.2970 H         1 UNK         0.0888 
     74 H74        29.8081   21.9827   -3.9239 H         1 UNK         0.0888 
     75 H75        29.8821   21.5327   -1.7400 H         1 UNK         0.3017 
     76 H76        30.6704   23.2689    0.2694 H         1 UNK         0.0873 
     77 H77        29.4744   21.3549    1.7845 H         1 UNK         0.0745 
     78 H78        29.3503   20.5266    0.2670 H         1 UNK         0.0745 
     79 H79        31.3238   20.1921    3.2402 H         1 UNK         0.0705 
     80 H80        32.9675   20.6940    2.9451 H         1 UNK         0.0705 
     81 H81        33.2650   23.2704    2.2420 H         1 UNK         0.1334 
     82 H82        30.9430   25.8643    4.7368 H         1 UNK         0.1417 
     83 H83        29.9343   21.7030    4.4325 H         1 UNK         0.1562 
     84 H84        29.4610   23.6201    6.6456 H         1 UNK         0.0748 
     85 H85        28.3136   23.2780    5.3750 H         1 UNK         0.0748 
     86 H86        26.6819   25.9873    4.2126 H         1 UNK         0.0940 
     87 H87        27.9947   25.0876    3.5482 H         1 UNK         0.0940 
     88 H88        29.2298   27.5455    4.1878 H         1 UNK         0.0703 
     89 H89        28.7295   26.1853    1.7554 H         1 UNK         0.3081 
     90 H90        30.3839   28.6135   -0.3192 H         1 UNK         0.0719 
     91 H91        32.1994   27.1859    0.5206 H         1 UNK         0.0809 
     92 H92        31.5908   26.5179   -0.9830 H         1 UNK         0.0809 
     93 H93        31.1425   25.7750    0.5505 H         1 UNK         0.0809 
     94 H94        29.1206   26.1657   -1.0019 H         1 UNK         0.2990 
     95 H95        25.8185   27.5151   -1.4784 H         1 UNK         0.0690 
     96 H96        26.2329   26.4597   -3.6830 H         1 UNK         0.0788 
     97 H97        27.9669   26.4059   -3.3663 H         1 UNK         0.0788 
     98 H98        27.1488   27.9513   -3.5435 H         1 UNK         0.0788 
     99 H99        26.9161   24.8736   -1.7103 H         1 UNK         0.2993 
    100 H100       26.0576   23.7785    1.5788 H         1 UNK         0.0949 
    101 H101       24.8619   22.0855    0.2240 H         1 UNK         0.0767 
    102 H102       23.9989   23.6126    0.1609 H         1 UNK         0.0767 
    103 H103       24.9722   23.1035   -1.2122 H         1 UNK         0.0767 
    104 H104       27.2914   22.3710   -0.5409 H         1 UNK         0.3013 
    105 H105       26.3991   27.6773    1.9867 H         1 UNK         0.3121 
    106 H106       24.8759   29.5645    3.3981 H         1 UNK         0.0774 
    107 H107       25.0147   29.0443    0.3806 H         1 UNK         0.0815 
    108 H108       23.7263   29.9131    1.2027 H         1 UNK         0.0815 
    109 H109       23.9759   28.2064    1.5322 H         1 UNK         0.0815 
    110 H110       27.5225   30.1040    1.0794 H         1 UNK         0.2987 
    111 H111       27.3840   32.9939    1.1141 H         1 UNK         0.0949 
    112 H112       29.5884   31.0689    0.2176 H         1 UNK         0.0806 
    113 H113       28.3084   31.7158   -0.8037 H         1 UNK         0.0806 
    114 H114       29.5286   32.7912   -0.1445 H         1 UNK         0.0806 
    115 H115       27.2916   32.1085    3.7340 H         1 UNK         0.3010 
    116 H116       28.0246   32.4109    5.8021 H         1 UNK         0.0829 
    117 H117       29.6962   34.6778    4.5922 H         1 UNK         0.0813 
    118 H118       27.9918   34.7899    5.0302 H         1 UNK         0.0813 
    119 H119       29.2039   34.5372    6.2739 H         1 UNK         0.0813 
    120 H120       29.2578   30.2812    4.6993 H         1 UNK         0.3038 
    121 H121       30.9343   28.8062    4.8186 H         1 UNK         0.0769 
    122 H122       32.2666   28.7031    6.9010 H         1 UNK         0.0811 
    123 H123       31.7760   30.3331    7.3344 H         1 UNK         0.0811 
    124 H124       30.5805   29.0385    7.2623 H         1 UNK         0.0811 
    125 H125       31.4962   30.0077    2.7951 H         1 UNK         0.3204 
    126 H126       33.5262   31.9062    2.5800 H         1 UNK         0.0748 
    127 H127       33.5436   31.2306    0.1568 H         1 UNK         0.0771 
    128 H128       32.6000   29.7993    0.5535 H         1 UNK         0.0771 
    129 H129       31.9148   31.4082    0.7842 H         1 UNK         0.0771 
    130 H130       33.9448   28.4930    3.1085 H         1 UNK         0.2980 
    131 H131       36.7398   28.4076    2.3047 H         1 UNK         0.0545 
    132 H132       35.2499   29.7872    5.1142 H         1 UNK         0.3459 
    133 H133       36.6842   29.6836    6.1079 H         1 UNK         0.3459 
    134 H134       35.5393   26.3705    1.9935 H         1 UNK         0.0616 
    135 H135       36.7105   26.0996    3.2359 H         1 UNK         0.0616 
    136 H136       32.4958   26.7899    3.0407 H         1 UNK         0.0634 
    137 H137       33.4049   25.7090    2.0102 H         1 UNK         0.0634 
@<TRIPOS>BOND
     1    1    2 1    
     2    1   72 1    
     3    1   73 1    
     4    1   74 1    
     5    2    3 2    
     6    2    4 am   BACKBONE|DICT|INTERRES
     7    4    5 1    
     8    4   75 1    
     9    5    6 1    
    10    5   35 1    
    11    5   76 1    
    12    6    7 1    
    13    6   77 1    
    14    6   78 1    
    15    7    8 1    
    16    8    9 1    
    17    8   79 1    
    18    8   80 1    
    19    9   10 ar   
    20    9   14 ar   
    21   10   11 ar   
    22   10   81 1    
    23   11   12 ar   
    24   11   71 1    
    25   12   13 ar   
    26   12   82 1    
    27   13   14 ar   
    28   13   15 1    
    29   14   83 1    
    30   15   16 1    
    31   15   84 1    
    32   15   85 1    
    33   16   17 1    
    34   17   18 1    
    35   17   86 1    
    36   17   87 1    
    37   18   19 1    
    38   18   37 1    
    39   18   88 1    
    40   19   20 am   BACKBONE|DICT|INTERRES
    41   19   89 1    
    42   20   21 2    
    43   20   22 1    
    44   22   23 1    
    45   22   24 1    
    46   22   90 1    
    47   23   91 1    
    48   23   92 1    
    49   23   93 1    
    50   24   25 am   BACKBONE|DICT|INTERRES
    51   24   94 1    
    52   25   26 2    
    53   25   27 1    
    54   27   28 1    
    55   27   29 1    
    56   27   95 1    
    57   28   96 1    
    58   28   97 1    
    59   28   98 1    
    60   29   30 am   BACKBONE|DICT|INTERRES
    61   29   99 1    
    62   30   31 2    
    63   30   32 1    
    64   32   33 1    
    65   32   34 1    
    66   32  100 1    
    67   33  101 1    
    68   33  102 1    
    69   33  103 1    
    70   34   35 am   BACKBONE|DICT|INTERRES
    71   34  104 1    
    72   35   36 2    
    73   37   38 2    
    74   37   39 am   BACKBONE|DICT|INTERRES
    75   39   40 1    
    76   39  105 1    
    77   40   41 1    
    78   40   42 1    
    79   40  106 1    
    80   41  107 1    
    81   41  108 1    
    82   41  109 1    
    83   42   43 2    
    84   42   44 am   BACKBONE|DICT|INTERRES
    85   44   45 1    
    86   44  110 1    
    87   45   46 1    
    88   45   47 1    
    89   45  111 1    
    90   46  112 1    
    91   46  113 1    
    92   46  114 1    
    93   47   48 2    
    94   47   49 am   BACKBONE|DICT|INTERRES
    95   49   50 1    
    96   49  115 1    
    97   50   51 1    
    98   50   52 1    
    99   50  116 1    
   100   51  117 1    
   101   51  118 1    
   102   51  119 1    
   103   52   53 2    
   104   52   54 am   BACKBONE|DICT|INTERRES
   105   54   55 1    
   106   54  120 1    
   107   55   56 1    
   108   55   57 1    
   109   55  121 1    
   110   56  122 1    
   111   56  123 1    
   112   56  124 1    
   113   57   58 2    
   114   57   59 am   BACKBONE|DICT|INTERRES
   115   59   60 1    
   116   59  125 1    
   117   60   61 1    
   118   60   62 1    
   119   60  126 1    
   120   61  127 1    
   121   61  128 1    
   122   61  129 1    
   123   62   63 2    
   124   62   64 am   BACKBONE|DICT|INTERRES
   125   64   65 1    
   126   64  130 1    
   127   65   66 1    
   128   65   69 1    
   129   65  131 1    
   130   66   67 am   BACKBONE|DICT|INTERRES
   131   66   68 2    
   132   67  132 1    
   133   67  133 1    
   134   69   70 1    
   135   69  134 1    
   136   69  135 1    
   137   70   71 1    
   138   71  136 1    
   139   71  137 1    
@<TRIPOS>SUBSTRUCTURE
     1 UNK         1 GROUP             0       ****    0 ROOT    
