@<TRIPOS>MOLECULE
3R136
137   139    1
SMALL
USER_CHARGES


@<TRIPOS>ATOM
      1 CA         28.0202   25.8686    2.9169 C.3       0 UNK        -0.1979 
      2 C          27.9990   24.5027    2.2486 C.2       0 UNK         0.4864 
      3 O          27.1365   23.6837    2.5737 O.2       0 UNK        -0.5359 
      4 N          28.9358   24.2459    1.3216 N.am      1 UNK        -0.4318 
      5 CA         29.0484   22.9913    0.5654 C.3       1 UNK         0.0824 
      6 C6         30.2733   22.9762   -0.3818 C.3       12 UNK        -0.0944 
      7 S7         31.8295   22.7567    0.5444 S.3       12 UNK        -0.2672 
      8 C8         32.7871   24.2326    0.0769 C.3       12 UNK         0.0333 
      9 C9         32.1861   25.5093    0.6438 C.ar      12 UNK        -0.0807 
     10 C10        32.1418   25.7104    2.0276 C.ar      12 UNK        -0.0894 
     11 C11        31.5876   26.8791    2.5541 C.ar      12 UNK        -0.0804 
     12 C12        31.0863   27.8508    1.6859 C.ar      12 UNK        -0.0824 
     13 C13        31.1294   27.6681    0.3028 C.ar      12 UNK        -0.0762 
     14 C14        31.6874   26.4949   -0.2143 C.ar      12 UNK        -0.0782 
     15 C15        30.5793   28.7530   -0.6158 C.3       12 UNK         0.0230 
     16 S16        29.3938   28.1294   -1.8546 S.3       12 UNK        -0.2608 
     17 C17        28.1519   27.2534   -0.8452 C.3       12 UNK        -0.0989 
     18 CA         26.7764   27.9748   -0.8288 C.3       5 UNK         0.0716 
     19 N          25.6666   27.0317   -0.8848 N.am      5 UNK        -0.4135 
     20 C          25.2047   26.4312   -1.9849 C.2       4 UNK         0.5031 
     21 O          25.6785   26.6032   -3.1096 O.2       4 UNK        -0.5229 
     22 CA         24.0210   25.4748   -1.7815 C.3       4 UNK         0.0329 
     23 CB         23.7415   24.5882   -3.0106 C.3       4 UNK        -0.2001 
     24 N          24.2701   24.6210   -0.6219 N.am      4 UNK        -0.4303 
     25 C          23.3711   24.3033    0.3200 C.2       3 UNK         0.5044 
     26 O          22.2317   24.7711    0.3588 O.2       3 UNK        -0.5152 
     27 CA         23.8193   23.2880    1.3954 C.3       3 UNK         0.0319 
     28 CB         22.6389   22.5196    2.0271 C.3       3 UNK        -0.2001 
     29 N          24.8538   22.3630    0.9138 N.am      3 UNK        -0.4354 
     30 C          24.7633   21.5151   -0.1267 C.2       2 UNK         0.4964 
     31 O          23.7118   21.2815   -0.7245 O.2       2 UNK        -0.5047 
     32 CA         26.0616   20.8298   -0.6087 C.3       2 UNK         0.0288 
     33 CB         26.1348   20.7604   -2.1497 C.3       2 UNK        -0.2113 
     34 N          27.3005   21.4085   -0.0667 N.am      2 UNK        -0.4145 
     35 C          27.7515   22.6659   -0.2041 C.2       1 UNK         0.5006 
     36 O          27.1765   23.5475   -0.8500 O.2       1 UNK        -0.5103 
     37 C          26.5790   28.8427    0.4258 C.2       5 UNK         0.5055 
     38 O          25.8256   28.4509    1.3231 O.2       5 UNK        -0.5220 
     39 N          27.2507   29.9994    0.4595 N.am      6 UNK        -0.4450 
     40 CA         27.2640   30.9326    1.5881 C.3       6 UNK         0.0367 
     41 CB         27.3909   32.3707    1.0418 C.3       6 UNK        -0.1929 
     42 C          28.3680   30.5369    2.5906 C.2       6 UNK         0.5070 
     43 O          28.3605   29.4096    3.0850 O.2       6 UNK        -0.5237 
     44 N          29.3061   31.4492    2.8668 N.am      7 UNK        -0.4739 
     45 CA         30.4990   31.2196    3.6779 C.3       7 UNK         0.0276 
     46 CB         30.4090   32.0443    4.9726 C.3       7 UNK        -0.1927 
     47 C          31.7165   31.6420    2.8502 C.2       7 UNK         0.5013 
     48 O          31.6826   32.7066    2.2296 O.2       7 UNK        -0.5193 
     49 N          32.7733   30.8238    2.8764 N.am      8 UNK        -0.4253 
     50 CA         34.0395   31.0551    2.1768 C.3       8 UNK         0.0242 
     51 CB         34.4592   29.7519    1.4690 C.3       8 UNK        -0.2000 
     52 C          35.1135   31.5688    3.1539 C.2       8 UNK         0.4948 
     53 O          36.2556   31.1074    3.1111 O.2       8 UNK        -0.5275 
     54 N          34.7178   32.4890    4.0480 N.am      9 UNK        -0.4246 
     55 CA         35.4862   33.1334    5.1265 C.3       9 UNK         0.0261 
     56 CB         36.6677   33.9528    4.5710 C.3       9 UNK        -0.1959 
     57 C          35.9470   32.1769    6.2424 C.2       9 UNK         0.5033 
     58 O          35.6782   32.4410    7.4149 O.2       9 UNK        -0.5390 
     59 N          36.6016   31.0727    5.8650 N.am      10 UNK        -0.4215 
     60 CA         37.0953   30.0165    6.7550 C.3       10 UNK         0.0240 
     61 CB         38.0558   29.1133    5.9638 C.3       10 UNK        -0.1982 
     62 C          35.9812   29.1750    7.4071 C.2       10 UNK         0.4970 
     63 O          36.2532   28.4736    8.3822 O.2       10 UNK        -0.4916 
     64 N          34.7618   29.2507    6.8599 N.am      11 UNK        -0.4279 
     65 CA         33.5593   28.5493    7.3353 C.3       11 UNK         0.1003 
     66 C          33.0288   29.0318    8.7178 C.2       11 UNK         0.5709 
     67 N          33.4443   30.1875    9.2247 N.am      11 UNK        -0.7358 
     68 O          32.2260   28.3412    9.3408 O.2       11 UNK        -0.4999 
     69 C69        32.4239   28.5877    6.2775 C.3       12 UNK        -0.0954 
     70 S70        32.9662   28.0405    4.6243 S.3       12 UNK        -0.2268 
     71 C71        31.5212   27.0998    4.0563 C.3       12 UNK         0.0203 
     72 H72        28.7464   26.5383    2.4624 H         1 UNK         0.0888 
     73 H73        28.2677   25.7671    3.9729 H         1 UNK         0.0888 
     74 H74        27.0410   26.3408    2.8405 H         1 UNK         0.0888 
     75 H75        29.6375   24.9417    1.1113 H         1 UNK         0.3017 
     76 H76        29.1881   22.2035    1.3092 H         1 UNK         0.0873 
     77 H77        30.3065   23.8825   -0.9894 H         1 UNK         0.0745 
     78 H78        30.2123   22.1442   -1.0865 H         1 UNK         0.0745 
     79 H79        33.8053   24.1243    0.4530 H         1 UNK         0.0705 
     80 H80        32.8657   24.2804   -1.0104 H         1 UNK         0.0705 
     81 H81        32.5338   24.9530    2.6929 H         1 UNK         0.1334 
     82 H82        30.6583   28.7537    2.0905 H         1 UNK         0.1417 
     83 H83        31.7264   26.3502   -1.2856 H         1 UNK         0.1562 
     84 H84        31.4137   29.2243   -1.1368 H         1 UNK         0.0748 
     85 H85        30.0981   29.5424   -0.0372 H         1 UNK         0.0748 
     86 H86        28.5238   27.0708    0.1625 H         1 UNK         0.0940 
     87 H87        28.0569   26.2603   -1.2887 H         1 UNK         0.0940 
     88 H88        26.6855   28.6321   -1.6967 H         1 UNK         0.0703 
     89 H89        25.1982   26.8979    0.0032 H         1 UNK         0.3081 
     90 H90        23.1459   26.1038   -1.6058 H         1 UNK         0.0719 
     91 H91        24.6001   23.9609   -3.2541 H         1 UNK         0.0809 
     92 H92        22.8876   23.9325   -2.8394 H         1 UNK         0.0809 
     93 H93        23.5148   25.1930   -3.8895 H         1 UNK         0.0809 
     94 H94        25.1986   24.2104   -0.5745 H         1 UNK         0.2990 
     95 H95        24.2882   23.8772    2.1849 H         1 UNK         0.0690 
     96 H96        22.9842   21.8134    2.7820 H         1 UNK         0.0788 
     97 H97        22.0705   21.9634    1.2811 H         1 UNK         0.0788 
     98 H98        21.9456   23.2032    2.5185 H         1 UNK         0.0788 
     99 H99        25.7625   22.4928    1.3455 H         1 UNK         0.2993 
    100 H100       26.0129   19.8067   -0.2327 H         1 UNK         0.0949 
    101 H101       25.2941   20.1992   -2.5595 H         1 UNK         0.0767 
    102 H102       26.1120   21.7531   -2.6008 H         1 UNK         0.0767 
    103 H103       27.0454   20.2619   -2.4819 H         1 UNK         0.0767 
    104 H104       27.8428   20.7776    0.5083 H         1 UNK         0.3013 
    105 H105       27.8534   30.2259   -0.3187 H         1 UNK         0.3121 
    106 H106       26.3149   30.8663    2.1246 H         1 UNK         0.0774 
    107 H107       26.5666   32.6043    0.3675 H         1 UNK         0.0815 
    108 H108       28.3191   32.5224    0.4889 H         1 UNK         0.0815 
    109 H109       27.3538   33.1059    1.8469 H         1 UNK         0.0815 
    110 H110       29.2847   32.3368    2.3817 H         1 UNK         0.2987 
    111 H111       30.5929   30.1655    3.9452 H         1 UNK         0.0949 
    112 H112       30.3061   33.1108    4.7674 H         1 UNK         0.0806 
    113 H113       29.5542   31.7370    5.5754 H         1 UNK         0.0806 
    114 H114       31.3015   31.9146    5.5859 H         1 UNK         0.0806 
    115 H115       32.7316   29.9779    3.4320 H         1 UNK         0.3010 
    116 H116       33.9147   31.8230    1.4104 H         1 UNK         0.0829 
    117 H117       33.6863   29.4068    0.7821 H         1 UNK         0.0813 
    118 H118       35.3679   29.8980    0.8838 H         1 UNK         0.0813 
    119 H119       34.6547   28.9484    2.1802 H         1 UNK         0.0813 
    120 H120       33.7530   32.7845    3.9862 H         1 UNK         0.3038 
    121 H121       34.7969   33.8398    5.5922 H         1 UNK         0.0769 
    122 H122       37.4132   33.3239    4.0835 H         1 UNK         0.0811 
    123 H123       37.1754   34.4934    5.3710 H         1 UNK         0.0811 
    124 H124       36.3292   34.6926    3.8456 H         1 UNK         0.0811 
    125 H125       36.7307   30.9393    4.8621 H         1 UNK         0.3204 
    126 H126       37.6557   30.4920    7.5626 H         1 UNK         0.0748 
    127 H127       38.8955   29.6819    5.5634 H         1 UNK         0.0771 
    128 H128       38.4710   28.3294    6.5989 H         1 UNK         0.0771 
    129 H129       37.5523   28.6251    5.1281 H         1 UNK         0.0771 
    130 H130       34.6384   29.8392    6.0518 H         1 UNK         0.2980 
    131 H131       33.8418   27.5037    7.4718 H         1 UNK         0.0545 
    132 H132       33.0953   30.4862   10.1215 H         1 UNK         0.3459 
    133 H133       34.1056   30.7613    8.7231 H         1 UNK         0.3459 
    134 H134       31.5918   27.9594    6.6013 H         1 UNK         0.0616 
    135 H135       32.0245   29.5985    6.1821 H         1 UNK         0.0616 
    136 H136       30.6064   27.6392    4.3083 H         1 UNK         0.0634 
    137 H137       31.4768   26.1464    4.5849 H         1 UNK         0.0634 
@<TRIPOS>BOND
     1    1    2 1    
     2    1   72 1    
     3    1   73 1    
     4    1   74 1    
     5    2    3 2    
     6    2    4 am   BACKBONE|DICT|INTERRES
     7    4    5 1    
     8    4   75 1    
     9    5    6 1    
    10    5   35 1    
    11    5   76 1    
    12    6    7 1    
    13    6   77 1    
    14    6   78 1    
    15    7    8 1    
    16    8    9 1    
    17    8   79 1    
    18    8   80 1    
    19    9   10 ar   
    20    9   14 ar   
    21   10   11 ar   
    22   10   81 1    
    23   11   12 ar   
    24   11   71 1    
    25   12   13 ar   
    26   12   82 1    
    27   13   14 ar   
    28   13   15 1    
    29   14   83 1    
    30   15   16 1    
    31   15   84 1    
    32   15   85 1    
    33   16   17 1    
    34   17   18 1    
    35   17   86 1    
    36   17   87 1    
    37   18   19 1    
    38   18   37 1    
    39   18   88 1    
    40   19   20 am   BACKBONE|DICT|INTERRES
    41   19   89 1    
    42   20   21 2    
    43   20   22 1    
    44   22   23 1    
    45   22   24 1    
    46   22   90 1    
    47   23   91 1    
    48   23   92 1    
    49   23   93 1    
    50   24   25 am   BACKBONE|DICT|INTERRES
    51   24   94 1    
    52   25   26 2    
    53   25   27 1    
    54   27   28 1    
    55   27   29 1    
    56   27   95 1    
    57   28   96 1    
    58   28   97 1    
    59   28   98 1    
    60   29   30 am   BACKBONE|DICT|INTERRES
    61   29   99 1    
    62   30   31 2    
    63   30   32 1    
    64   32   33 1    
    65   32   34 1    
    66   32  100 1    
    67   33  101 1    
    68   33  102 1    
    69   33  103 1    
    70   34   35 am   BACKBONE|DICT|INTERRES
    71   34  104 1    
    72   35   36 2    
    73   37   38 2    
    74   37   39 am   BACKBONE|DICT|INTERRES
    75   39   40 1    
    76   39  105 1    
    77   40   41 1    
    78   40   42 1    
    79   40  106 1    
    80   41  107 1    
    81   41  108 1    
    82   41  109 1    
    83   42   43 2    
    84   42   44 am   BACKBONE|DICT|INTERRES
    85   44   45 1    
    86   44  110 1    
    87   45   46 1    
    88   45   47 1    
    89   45  111 1    
    90   46  112 1    
    91   46  113 1    
    92   46  114 1    
    93   47   48 2    
    94   47   49 am   BACKBONE|DICT|INTERRES
    95   49   50 1    
    96   49  115 1    
    97   50   51 1    
    98   50   52 1    
    99   50  116 1    
   100   51  117 1    
   101   51  118 1    
   102   51  119 1    
   103   52   53 2    
   104   52   54 am   BACKBONE|DICT|INTERRES
   105   54   55 1    
   106   54  120 1    
   107   55   56 1    
   108   55   57 1    
   109   55  121 1    
   110   56  122 1    
   111   56  123 1    
   112   56  124 1    
   113   57   58 2    
   114   57   59 am   BACKBONE|DICT|INTERRES
   115   59   60 1    
   116   59  125 1    
   117   60   61 1    
   118   60   62 1    
   119   60  126 1    
   120   61  127 1    
   121   61  128 1    
   122   61  129 1    
   123   62   63 2    
   124   62   64 am   BACKBONE|DICT|INTERRES
   125   64   65 1    
   126   64  130 1    
   127   65   66 1    
   128   65   69 1    
   129   65  131 1    
   130   66   67 am   BACKBONE|DICT|INTERRES
   131   66   68 2    
   132   67  132 1    
   133   67  133 1    
   134   69   70 1    
   135   69  134 1    
   136   69  135 1    
   137   70   71 1    
   138   71  136 1    
   139   71  137 1    
@<TRIPOS>SUBSTRUCTURE
     1 UNK         1 GROUP             0       ****    0 ROOT    
