@<TRIPOS>MOLECULE
3R136
137   139    1
SMALL
USER_CHARGES


@<TRIPOS>ATOM
      1 CA         30.3987   25.4989   -2.4644 C.3       0 UNK        -0.1979 
      2 C          30.2808   24.1970   -1.6863 C.2       0 UNK         0.4864 
      3 O          30.5970   23.1335   -2.2217 O.2       0 UNK        -0.5359 
      4 N          29.7975   24.2744   -0.4389 N.am      1 UNK        -0.4318 
      5 CA         29.5763   23.1923    0.5360 C.3       1 UNK         0.0824 
      6 C6         30.8471   22.3892    0.9147 C.3       12 UNK        -0.0944 
      7 S7         32.1804   23.4385    1.5829 S.3       12 UNK        -0.2672 
      8 C8         31.9766   23.1974    3.3753 C.3       12 UNK         0.0333 
      9 C9         30.9265   24.1331    3.9554 C.ar      12 UNK        -0.0807 
     10 C10        31.2940   25.4246    4.3397 C.ar      12 UNK        -0.0894 
     11 C11        30.3639   26.2858    4.9256 C.ar      12 UNK        -0.0804 
     12 C12        29.0492   25.8525    5.1037 C.ar      12 UNK        -0.0824 
     13 C13        28.6488   24.5880    4.6617 C.ar      12 UNK        -0.0762 
     14 C14        29.5993   23.7194    4.1142 C.ar      12 UNK        -0.0782 
     15 C15        27.1867   24.1729    4.7588 C.3       12 UNK         0.0230 
     16 S16        26.2399   24.6646    3.2749 S.3       12 UNK        -0.2608 
     17 C17        26.1908   26.4834    3.4349 C.3       12 UNK        -0.0989 
     18 CA         27.1472   27.1710    2.4167 C.3       5 UNK         0.0716 
     19 N          26.5904   27.2094    1.0541 N.am      5 UNK        -0.4135 
     20 C          25.5641   27.9618    0.6275 C.2       4 UNK         0.5031 
     21 O          24.8816   28.6786    1.3603 O.2       4 UNK        -0.5229 
     22 CA         25.2468   27.9398   -0.8782 C.3       4 UNK         0.0329 
     23 CB         26.2963   28.7405   -1.6768 C.3       4 UNK        -0.2001 
     24 N          25.0322   26.6038   -1.4504 N.am      4 UNK        -0.4303 
     25 C          25.9162   25.6112   -1.6071 C.2       3 UNK         0.5044 
     26 O          27.0941   25.6643   -1.2356 O.2       3 UNK        -0.5152 
     27 CA         25.3913   24.3551   -2.3145 C.3       3 UNK         0.0319 
     28 CB         25.2056   24.5978   -3.8233 C.3       3 UNK        -0.2001 
     29 N          26.3558   23.2856   -2.1084 N.am      3 UNK        -0.4354 
     30 C          26.1032   21.9733   -2.0550 C.2       2 UNK         0.4964 
     31 O          24.9929   21.4794   -2.2547 O.2       2 UNK        -0.5047 
     32 CA         27.2926   21.0522   -1.7188 C.3       2 UNK         0.0288 
     33 CB         27.7992   20.3403   -2.9839 C.3       2 UNK        -0.2113 
     34 N          28.4067   21.7794   -1.1039 N.am      2 UNK        -0.4145 
     35 C          28.4225   22.2446    0.1514 C.2       1 UNK         0.5006 
     36 O          27.5559   21.9773    0.9843 O.2       1 UNK        -0.5103 
     37 C          27.6246   28.5779    2.8554 C.2       5 UNK         0.5055 
     38 O          27.2541   29.0645    3.9256 O.2       5 UNK        -0.5220 
     39 N          28.4076   29.2241    1.9783 N.am      6 UNK        -0.4450 
     40 CA         28.8732   30.6047    2.1019 C.3       6 UNK         0.0367 
     41 CB         29.3991   31.0753    0.7333 C.3       6 UNK        -0.1929 
     42 C          29.9408   30.7660    3.1956 C.2       6 UNK         0.5070 
     43 O          31.1336   30.6392    2.9119 O.2       6 UNK        -0.5237 
     44 N          29.5060   31.0803    4.4221 N.am      7 UNK        -0.4739 
     45 CA         30.3576   31.3095    5.5992 C.3       7 UNK         0.0276 
     46 CB         29.4681   31.4727    6.8413 C.3       7 UNK        -0.1927 
     47 C          31.3459   32.4829    5.4726 C.2       7 UNK         0.5013 
     48 O          32.3068   32.5456    6.2378 O.2       7 UNK        -0.5193 
     49 N          31.1165   33.3704    4.4980 N.am      8 UNK        -0.4253 
     50 CA         32.0277   34.4479    4.1191 C.3       8 UNK         0.0242 
     51 CB         31.2487   35.4831    3.2897 C.3       8 UNK        -0.2000 
     52 C          33.2715   33.9680    3.3436 C.2       8 UNK         0.4948 
     53 O          34.2170   34.7499    3.2290 O.2       8 UNK        -0.5275 
     54 N          33.2573   32.7382    2.8013 N.am      9 UNK        -0.4246 
     55 CA         34.3122   32.2309    1.9178 C.3       9 UNK         0.0261 
     56 CB         33.8913   32.4285    0.4503 C.3       9 UNK        -0.1959 
     57 C          34.6883   30.7659    2.1789 C.2       9 UNK         0.5033 
     58 O          35.8799   30.4619    2.2476 O.2       9 UNK        -0.5390 
     59 N          33.6940   29.8747    2.2850 N.am      10 UNK        -0.4215 
     60 CA         33.8998   28.4230    2.3233 C.3       10 UNK         0.0240 
     61 CB         32.6490   27.7194    1.7648 C.3       10 UNK        -0.1982 
     62 C          34.2755   27.8771    3.7120 C.2       10 UNK         0.4970 
     63 O          34.8268   26.7784    3.7849 O.2       10 UNK        -0.4916 
     64 N          33.9723   28.6257    4.7788 N.am      11 UNK        -0.4279 
     65 CA         34.2329   28.2423    6.1760 C.3       11 UNK         0.1003 
     66 C          34.5324   29.4529    7.1052 C.2       11 UNK         0.5709 
     67 N          34.9188   30.6056    6.5712 N.am      11 UNK        -0.7358 
     68 O          34.4453   29.3456    8.3261 O.2       11 UNK        -0.4999 
     69 C69        33.1935   27.2227    6.7339 C.3       12 UNK        -0.0954 
     70 S70        31.4925   27.8554    6.9583 S.3       12 UNK        -0.2268 
     71 C71        30.7466   27.7079    5.3031 C.3       12 UNK         0.0203 
     72 H72        29.8281   25.4341   -3.3904 H         1 UNK         0.0888 
     73 H73        30.0208   26.3490   -1.8963 H         1 UNK         0.0888 
     74 H74        31.4409   25.6926   -2.7162 H         1 UNK         0.0888 
     75 H75        29.5143   25.1851   -0.1076 H         1 UNK         0.3017 
     76 H76        29.2360   23.7091    1.4329 H         1 UNK         0.0873 
     77 H77        30.6067   21.6132    1.6437 H         1 UNK         0.0745 
     78 H78        31.2417   21.8616    0.0450 H         1 UNK         0.0745 
     79 H79        32.9362   23.3885    3.8585 H         1 UNK         0.0705 
     80 H80        31.7349   22.1571    3.5973 H         1 UNK         0.0705 
     81 H81        32.3091   25.7540    4.1759 H         1 UNK         0.1334 
     82 H82        28.3303   26.5218    5.5540 H         1 UNK         0.1417 
     83 H83        29.3009   22.7306    3.7925 H         1 UNK         0.1562 
     84 H84        26.7257   24.6022    5.6498 H         1 UNK         0.0748 
     85 H85        27.1165   23.0903    4.8747 H         1 UNK         0.0748 
     86 H86        26.4245   26.7457    4.4657 H         1 UNK         0.0940 
     87 H87        25.1631   26.8194    3.2916 H         1 UNK         0.0940 
     88 H88        28.0597   26.5751    2.3583 H         1 UNK         0.0703 
     89 H89        27.0374   26.6188    0.3570 H         1 UNK         0.3081 
     90 H90        24.2939   28.4583   -0.9982 H         1 UNK         0.0719 
     91 H91        26.0194   28.8146   -2.7284 H         1 UNK         0.0809 
     92 H92        27.2884   28.2915   -1.6248 H         1 UNK         0.0809 
     93 H93        26.3827   29.7581   -1.2933 H         1 UNK         0.0809 
     94 H94        24.0874   26.4320   -1.7665 H         1 UNK         0.2990 
     95 H95        24.4374   24.0773   -1.8609 H         1 UNK         0.0690 
     96 H96        24.8430   23.7014   -4.3270 H         1 UNK         0.0788 
     97 H97        26.1412   24.8930   -4.3004 H         1 UNK         0.0788 
     98 H98        24.4785   25.3884   -4.0117 H         1 UNK         0.0788 
     99 H99        27.2821   23.6177   -1.8727 H         1 UNK         0.2993 
    100 H100       26.9360   20.2980   -1.0139 H         1 UNK         0.0949 
    101 H101       28.1760   21.0498   -3.7220 H         1 UNK         0.0767 
    102 H102       28.6022   19.6409   -2.7501 H         1 UNK         0.0767 
    103 H103       26.9998   19.7686   -3.4576 H         1 UNK         0.0767 
    104 H104       29.1764   22.0609   -1.7092 H         1 UNK         0.3013 
    105 H105       28.6755   28.7408    1.1341 H         1 UNK         0.3121 
    106 H106       28.0188   31.2330    2.3632 H         1 UNK         0.0774 
    107 H107       29.7634   32.1022    0.7867 H         1 UNK         0.0815 
    108 H108       30.2251   30.4567    0.3794 H         1 UNK         0.0815 
    109 H109       28.6145   31.0511   -0.0232 H         1 UNK         0.0815 
    110 H110       28.5063   31.1087    4.5762 H         1 UNK         0.2987 
    111 H111       30.9766   30.4246    5.7372 H         1 UNK         0.0949 
    112 H112       28.8515   30.5884    7.0047 H         1 UNK         0.0806 
    113 H113       30.0718   31.6126    7.7393 H         1 UNK         0.0806 
    114 H114       28.8067   32.3354    6.7537 H         1 UNK         0.0806 
    115 H115       30.2915   33.2458    3.9302 H         1 UNK         0.3010 
    116 H116       32.3814   34.9358    5.0302 H         1 UNK         0.0829 
    117 H117       30.4032   35.8854    3.8481 H         1 UNK         0.0813 
    118 H118       31.8856   36.3269    3.0198 H         1 UNK         0.0813 
    119 H119       30.8674   35.0540    2.3622 H         1 UNK         0.0813 
    120 H120       32.4528   32.1384    2.9526 H         1 UNK         0.3038 
    121 H121       35.2293   32.8026    2.0766 H         1 UNK         0.0769 
    122 H122       33.7566   33.4849    0.2173 H         1 UNK         0.0811 
    123 H123       32.9555   31.9150    0.2256 H         1 UNK         0.0811 
    124 H124       34.6500   32.0417   -0.2317 H         1 UNK         0.0811 
    125 H125       32.7249   30.1923    2.2980 H         1 UNK         0.3204 
    126 H126       34.7311   28.1760    1.6591 H         1 UNK         0.0748 
    127 H127       32.7571   26.6343    1.8011 H         1 UNK         0.0771 
    128 H128       31.7470   27.9777    2.3178 H         1 UNK         0.0771 
    129 H129       32.4821   27.9887    0.7218 H         1 UNK         0.0771 
    130 H130       33.5164   29.5154    4.6426 H         1 UNK         0.2980 
    131 H131       35.1888   27.7154    6.1746 H         1 UNK         0.0545 
    132 H132       35.0942   31.3882    7.1813 H         1 UNK         0.3459 
    133 H133       35.0715   30.7005    5.5814 H         1 UNK         0.3459 
    134 H134       33.5286   26.8669    7.7094 H         1 UNK         0.0616 
    135 H135       33.1733   26.3289    6.1150 H         1 UNK         0.0616 
    136 H136       31.4064   28.1353    4.5534 H         1 UNK         0.0634 
    137 H137       29.8513   28.3306    5.2875 H         1 UNK         0.0634 
@<TRIPOS>BOND
     1    1    2 1    
     2    1   72 1    
     3    1   73 1    
     4    1   74 1    
     5    2    3 2    
     6    2    4 am   BACKBONE|DICT|INTERRES
     7    4    5 1    
     8    4   75 1    
     9    5    6 1    
    10    5   35 1    
    11    5   76 1    
    12    6    7 1    
    13    6   77 1    
    14    6   78 1    
    15    7    8 1    
    16    8    9 1    
    17    8   79 1    
    18    8   80 1    
    19    9   10 ar   
    20    9   14 ar   
    21   10   11 ar   
    22   10   81 1    
    23   11   12 ar   
    24   11   71 1    
    25   12   13 ar   
    26   12   82 1    
    27   13   14 ar   
    28   13   15 1    
    29   14   83 1    
    30   15   16 1    
    31   15   84 1    
    32   15   85 1    
    33   16   17 1    
    34   17   18 1    
    35   17   86 1    
    36   17   87 1    
    37   18   19 1    
    38   18   37 1    
    39   18   88 1    
    40   19   20 am   BACKBONE|DICT|INTERRES
    41   19   89 1    
    42   20   21 2    
    43   20   22 1    
    44   22   23 1    
    45   22   24 1    
    46   22   90 1    
    47   23   91 1    
    48   23   92 1    
    49   23   93 1    
    50   24   25 am   BACKBONE|DICT|INTERRES
    51   24   94 1    
    52   25   26 2    
    53   25   27 1    
    54   27   28 1    
    55   27   29 1    
    56   27   95 1    
    57   28   96 1    
    58   28   97 1    
    59   28   98 1    
    60   29   30 am   BACKBONE|DICT|INTERRES
    61   29   99 1    
    62   30   31 2    
    63   30   32 1    
    64   32   33 1    
    65   32   34 1    
    66   32  100 1    
    67   33  101 1    
    68   33  102 1    
    69   33  103 1    
    70   34   35 am   BACKBONE|DICT|INTERRES
    71   34  104 1    
    72   35   36 2    
    73   37   38 2    
    74   37   39 am   BACKBONE|DICT|INTERRES
    75   39   40 1    
    76   39  105 1    
    77   40   41 1    
    78   40   42 1    
    79   40  106 1    
    80   41  107 1    
    81   41  108 1    
    82   41  109 1    
    83   42   43 2    
    84   42   44 am   BACKBONE|DICT|INTERRES
    85   44   45 1    
    86   44  110 1    
    87   45   46 1    
    88   45   47 1    
    89   45  111 1    
    90   46  112 1    
    91   46  113 1    
    92   46  114 1    
    93   47   48 2    
    94   47   49 am   BACKBONE|DICT|INTERRES
    95   49   50 1    
    96   49  115 1    
    97   50   51 1    
    98   50   52 1    
    99   50  116 1    
   100   51  117 1    
   101   51  118 1    
   102   51  119 1    
   103   52   53 2    
   104   52   54 am   BACKBONE|DICT|INTERRES
   105   54   55 1    
   106   54  120 1    
   107   55   56 1    
   108   55   57 1    
   109   55  121 1    
   110   56  122 1    
   111   56  123 1    
   112   56  124 1    
   113   57   58 2    
   114   57   59 am   BACKBONE|DICT|INTERRES
   115   59   60 1    
   116   59  125 1    
   117   60   61 1    
   118   60   62 1    
   119   60  126 1    
   120   61  127 1    
   121   61  128 1    
   122   61  129 1    
   123   62   63 2    
   124   62   64 am   BACKBONE|DICT|INTERRES
   125   64   65 1    
   126   64  130 1    
   127   65   66 1    
   128   65   69 1    
   129   65  131 1    
   130   66   67 am   BACKBONE|DICT|INTERRES
   131   66   68 2    
   132   67  132 1    
   133   67  133 1    
   134   69   70 1    
   135   69  134 1    
   136   69  135 1    
   137   70   71 1    
   138   71  136 1    
   139   71  137 1    
@<TRIPOS>SUBSTRUCTURE
     1 UNK         1 GROUP             0       ****    0 ROOT    
