@<TRIPOS>MOLECULE
3R136
137   139    1
SMALL
USER_CHARGES


@<TRIPOS>ATOM
      1 CA         26.8950   20.4723   -0.7075 C.3       0 UNK        -0.1979 
      2 C          27.8320   21.2701    0.1860 C.2       0 UNK         0.4864 
      3 O          27.5255   22.4108    0.5289 O.2       0 UNK        -0.5359 
      4 N          28.9621   20.6720    0.5873 N.am      1 UNK        -0.4318 
      5 CA         30.0304   21.2992    1.3837 C.3       1 UNK         0.0824 
      6 C6         31.3196   20.4353    1.3901 C.3       12 UNK        -0.0944 
      7 S7         31.9539   20.1301   -0.2988 S.3       12 UNK        -0.2672 
      8 C8         33.3249   21.3284   -0.4391 C.3       12 UNK         0.0333 
      9 C9         32.8955   22.7411   -0.0671 C.ar      12 UNK        -0.0807 
     10 C10        33.4159   23.3520    1.0772 C.ar      12 UNK        -0.0894 
     11 C11        32.9733   24.6138    1.4831 C.ar      12 UNK        -0.0804 
     12 C12        31.9920   25.2619    0.7201 C.ar      12 UNK        -0.0824 
     13 C13        31.4651   24.6654   -0.4295 C.ar      12 UNK        -0.0762 
     14 C14        31.9400   23.4147   -0.8332 C.ar      12 UNK        -0.0782 
     15 C15        30.3187   25.3259   -1.1817 C.3       12 UNK         0.0230 
     16 S16        30.6806   27.0422   -1.6742 S.3       12 UNK        -0.2608 
     17 C17        29.0287   27.5449   -2.2727 C.3       12 UNK        -0.0989 
     18 CA         28.2941   28.5577   -1.3560 C.3       5 UNK         0.0716 
     19 N          28.2965   28.1563    0.0575 N.am      5 UNK        -0.4135 
     20 C          27.4495   28.6280    0.9805 C.2       4 UNK         0.5031 
     21 O          26.4821   29.3458    0.7205 O.2       4 UNK        -0.5229 
     22 CA         27.7415   28.2475    2.4388 C.3       4 UNK         0.0329 
     23 CB         27.4625   29.4232    3.3929 C.3       4 UNK        -0.2001 
     24 N          26.9317   27.0998    2.8358 N.am      4 UNK        -0.4303 
     25 C          27.2219   25.8278    2.5404 C.2       3 UNK         0.5044 
     26 O          28.2197   25.4835    1.9036 O.2       3 UNK        -0.5152 
     27 CA         26.2005   24.7819    3.0069 C.3       3 UNK         0.0319 
     28 CB         25.1142   24.5898    1.9357 C.3       3 UNK        -0.2001 
     29 N          26.8579   23.4974    3.2459 N.am      3 UNK        -0.4354 
     30 C          27.1098   22.9787    4.4575 C.2       2 UNK         0.4964 
     31 O          26.7851   23.5242    5.5134 O.2       2 UNK        -0.5047 
     32 CA         27.8175   21.6105    4.5342 C.3       2 UNK         0.0288 
     33 CB         26.8240   20.5148    4.9568 C.3       2 UNK        -0.2113 
     34 N          28.4510   21.2104    3.2786 N.am      2 UNK        -0.4145 
     35 C          29.6124   21.6951    2.8185 C.2       1 UNK         0.5006 
     36 O          30.3406   22.4395    3.4763 O.2       1 UNK        -0.5103 
     37 C          28.7936   30.0057   -1.5680 C.2       5 UNK         0.5055 
     38 O          28.4868   30.5973   -2.6047 O.2       5 UNK        -0.5220 
     39 N          29.5161   30.5622   -0.5870 N.am      6 UNK        -0.4450 
     40 CA         29.8994   31.9650   -0.5127 C.3       6 UNK         0.0367 
     41 CB         31.3393   32.1432   -1.0224 C.3       6 UNK        -0.1929 
     42 C          29.7788   32.4023    0.9483 C.2       6 UNK         0.5070 
     43 O          30.2120   31.6665    1.8409 O.2       6 UNK        -0.5237 
     44 N          29.2409   33.6076    1.1704 N.am      7 UNK        -0.4739 
     45 CA         29.0933   34.2190    2.4972 C.3       7 UNK         0.0276 
     46 CB         28.1850   35.4544    2.3910 C.3       7 UNK        -0.1927 
     47 C          30.4371   34.5908    3.1488 C.2       7 UNK         0.5013 
     48 O          30.5209   34.6355    4.3753 O.2       7 UNK        -0.5193 
     49 N          31.4649   34.8241    2.3199 N.am      8 UNK        -0.4253 
     50 CA         32.8504   35.0256    2.7470 C.3       8 UNK         0.0242 
     51 CB         33.6582   35.6242    1.5838 C.3       8 UNK        -0.2000 
     52 C          33.5123   33.7302    3.2514 C.2       8 UNK         0.4948 
     53 O          34.4015   33.8062    4.1001 O.2       8 UNK        -0.5275 
     54 N          33.0772   32.5748    2.7255 N.am      9 UNK        -0.4246 
     55 CA         33.5277   31.2518    3.1580 C.3       9 UNK         0.0261 
     56 CB         33.3768   30.2438    2.0062 C.3       9 UNK        -0.1959 
     57 C          32.7636   30.7953    4.4103 C.2       9 UNK         0.5033 
     58 O          33.3955   30.3294    5.3591 O.2       9 UNK        -0.5390 
     59 N          31.4301   30.9680    4.3957 N.am      10 UNK        -0.4215 
     60 CA         30.4905   30.6994    5.4961 C.3       10 UNK         0.0240 
     61 CB         30.7070   31.7026    6.6494 C.3       10 UNK        -0.1982 
     62 C          30.4971   29.2311    5.9750 C.2       10 UNK         0.4970 
     63 O          30.3874   28.9706    7.1750 O.2       10 UNK        -0.4916 
     64 N          30.6444   28.3042    5.0221 N.am      11 UNK        -0.4279 
     65 CA         30.7059   26.8507    5.2372 C.3       11 UNK         0.1003 
     66 C          29.3817   26.2333    5.7720 C.2       11 UNK         0.5709 
     67 N          29.4292   25.0025    6.2619 N.am      11 UNK        -0.7358 
     68 O          28.3126   26.8375    5.7288 O.2       11 UNK        -0.4999 
     69 C69        31.1856   26.1258    3.9533 C.3       12 UNK        -0.0954 
     70 S70        32.8032   26.7419    3.3752 S.3       12 UNK        -0.2268 
     71 C71        33.5837   25.2145    2.7525 C.3       12 UNK         0.0203 
     72 H72        26.7558   20.9881   -1.6571 H         1 UNK         0.0888 
     73 H73        27.2812   19.4748   -0.9166 H         1 UNK         0.0888 
     74 H74        25.9208   20.3671   -0.2308 H         1 UNK         0.0888 
     75 H75        29.1627   19.7343    0.2687 H         1 UNK         0.3017 
     76 H76        30.2591   22.2471    0.8973 H         1 UNK         0.0873 
     77 H77        31.1260   19.4699    1.8611 H         1 UNK         0.0745 
     78 H78        32.1045   20.9055    1.9854 H         1 UNK         0.0745 
     79 H79        34.1501   20.9938    0.1916 H         1 UNK         0.0705 
     80 H80        33.6994   21.3227   -1.4636 H         1 UNK         0.0705 
     81 H81        34.1560   22.8326    1.6710 H         1 UNK         0.1334 
     82 H82        31.6137   26.2286    1.0159 H         1 UNK         0.1417 
     83 H83        31.5229   22.9321   -1.7069 H         1 UNK         0.1562 
     84 H84        29.4358   25.3078   -0.5410 H         1 UNK         0.0748 
     85 H85        30.0626   24.7538   -2.0749 H         1 UNK         0.0748 
     86 H86        29.1336   27.9408   -3.2851 H         1 UNK         0.0940 
     87 H87        28.4048   26.6570   -2.3866 H         1 UNK         0.0940 
     88 H88        27.2509   28.5652   -1.6804 H         1 UNK         0.0703 
     89 H89        29.0275   27.5169    0.3368 H         1 UNK         0.3081 
     90 H90        28.7985   27.9905    2.5324 H         1 UNK         0.0719 
     91 H91        28.0533   30.2974    3.1160 H         1 UNK         0.0809 
     92 H92        26.4136   29.7221    3.3768 H         1 UNK         0.0809 
     93 H93        27.7170   29.1681    4.4211 H         1 UNK         0.0809 
     94 H94        26.0797   27.3033    3.3379 H         1 UNK         0.2990 
     95 H95        25.7245   25.1425    3.9213 H         1 UNK         0.0690 
     96 H96        24.3775   23.8493    2.2475 H         1 UNK         0.0788 
     97 H97        25.5386   24.2600    0.9863 H         1 UNK         0.0788 
     98 H98        24.5787   25.5211    1.7472 H         1 UNK         0.0788 
     99 H99        27.2158   23.0364    2.4138 H         1 UNK         0.2993 
    100 H100       28.5887   21.6889    5.3040 H         1 UNK         0.0949 
    101 H101       27.3221   19.5527    5.0790 H         1 UNK         0.0767 
    102 H102       26.3563   20.7586    5.9119 H         1 UNK         0.0767 
    103 H103       26.0245   20.3905    4.2251 H         1 UNK         0.0767 
    104 H104       27.9185   20.6045    2.6716 H         1 UNK         0.3013 
    105 H105       29.7071   30.0303    0.2508 H         1 UNK         0.3121 
    106 H106       29.2229   32.5712   -1.1196 H         1 UNK         0.0774 
    107 H107       32.0496   31.5501   -0.4456 H         1 UNK         0.0815 
    108 H108       31.4263   31.8410   -2.0662 H         1 UNK         0.0815 
    109 H109       31.6532   33.1858   -0.9604 H         1 UNK         0.0815 
    110 H110       28.9093   34.1490    0.3839 H         1 UNK         0.2987 
    111 H111       28.6081   33.4911    3.1520 H         1 UNK         0.0949 
    112 H112       27.1990   35.1907    2.0080 H         1 UNK         0.0806 
    113 H113       28.0372   35.9147    3.3692 H         1 UNK         0.0806 
    114 H114       28.6097   36.2147    1.7344 H         1 UNK         0.0806 
    115 H115       31.2881   34.8015    1.3264 H         1 UNK         0.3010 
    116 H116       32.8542   35.7417    3.5720 H         1 UNK         0.0829 
    117 H117       33.6838   34.9568    0.7213 H         1 UNK         0.0813 
    118 H118       34.6910   35.8097    1.8823 H         1 UNK         0.0813 
    119 H119       33.2409   36.5778    1.2596 H         1 UNK         0.0813 
    120 H120       32.3120   32.5993    2.0670 H         1 UNK         0.3038 
    121 H121       34.5889   31.3068    3.4114 H         1 UNK         0.0769 
    122 H122       33.8952   30.5852    1.1103 H         1 UNK         0.0811 
    123 H123       32.3343   30.0642    1.7435 H         1 UNK         0.0811 
    124 H124       33.8137   29.2833    2.2790 H         1 UNK         0.0811 
    125 H125       31.0089   31.3150    3.5360 H         1 UNK         0.3204 
    126 H126       29.4940   30.8820    5.0931 H         1 UNK         0.0748 
    127 H127       31.6686   31.5518    7.1412 H         1 UNK         0.0771 
    128 H128       30.6727   32.7313    6.2921 H         1 UNK         0.0771 
    129 H129       29.9320   31.6003    7.4100 H         1 UNK         0.0771 
    130 H130       30.7561   28.6100    4.0690 H         1 UNK         0.2980 
    131 H131       31.4549   26.6861    6.0142 H         1 UNK         0.0545 
    132 H132       30.2901   24.4799    6.2918 H         1 UNK         0.3459 
    133 H133       28.5636   24.5729    6.5551 H         1 UNK         0.3459 
    134 H134       30.4604   26.2510    3.1492 H         1 UNK         0.0616 
    135 H135       31.2626   25.0510    4.1262 H         1 UNK         0.0616 
    136 H136       34.6336   25.4337    2.5544 H         1 UNK         0.0634 
    137 H137       33.5698   24.4694    3.5496 H         1 UNK         0.0634 
@<TRIPOS>BOND
     1    1    2 1    
     2    1   72 1    
     3    1   73 1    
     4    1   74 1    
     5    2    3 2    
     6    2    4 am   BACKBONE|DICT|INTERRES
     7    4    5 1    
     8    4   75 1    
     9    5    6 1    
    10    5   35 1    
    11    5   76 1    
    12    6    7 1    
    13    6   77 1    
    14    6   78 1    
    15    7    8 1    
    16    8    9 1    
    17    8   79 1    
    18    8   80 1    
    19    9   10 ar   
    20    9   14 ar   
    21   10   11 ar   
    22   10   81 1    
    23   11   12 ar   
    24   11   71 1    
    25   12   13 ar   
    26   12   82 1    
    27   13   14 ar   
    28   13   15 1    
    29   14   83 1    
    30   15   16 1    
    31   15   84 1    
    32   15   85 1    
    33   16   17 1    
    34   17   18 1    
    35   17   86 1    
    36   17   87 1    
    37   18   19 1    
    38   18   37 1    
    39   18   88 1    
    40   19   20 am   BACKBONE|DICT|INTERRES
    41   19   89 1    
    42   20   21 2    
    43   20   22 1    
    44   22   23 1    
    45   22   24 1    
    46   22   90 1    
    47   23   91 1    
    48   23   92 1    
    49   23   93 1    
    50   24   25 am   BACKBONE|DICT|INTERRES
    51   24   94 1    
    52   25   26 2    
    53   25   27 1    
    54   27   28 1    
    55   27   29 1    
    56   27   95 1    
    57   28   96 1    
    58   28   97 1    
    59   28   98 1    
    60   29   30 am   BACKBONE|DICT|INTERRES
    61   29   99 1    
    62   30   31 2    
    63   30   32 1    
    64   32   33 1    
    65   32   34 1    
    66   32  100 1    
    67   33  101 1    
    68   33  102 1    
    69   33  103 1    
    70   34   35 am   BACKBONE|DICT|INTERRES
    71   34  104 1    
    72   35   36 2    
    73   37   38 2    
    74   37   39 am   BACKBONE|DICT|INTERRES
    75   39   40 1    
    76   39  105 1    
    77   40   41 1    
    78   40   42 1    
    79   40  106 1    
    80   41  107 1    
    81   41  108 1    
    82   41  109 1    
    83   42   43 2    
    84   42   44 am   BACKBONE|DICT|INTERRES
    85   44   45 1    
    86   44  110 1    
    87   45   46 1    
    88   45   47 1    
    89   45  111 1    
    90   46  112 1    
    91   46  113 1    
    92   46  114 1    
    93   47   48 2    
    94   47   49 am   BACKBONE|DICT|INTERRES
    95   49   50 1    
    96   49  115 1    
    97   50   51 1    
    98   50   52 1    
    99   50  116 1    
   100   51  117 1    
   101   51  118 1    
   102   51  119 1    
   103   52   53 2    
   104   52   54 am   BACKBONE|DICT|INTERRES
   105   54   55 1    
   106   54  120 1    
   107   55   56 1    
   108   55   57 1    
   109   55  121 1    
   110   56  122 1    
   111   56  123 1    
   112   56  124 1    
   113   57   58 2    
   114   57   59 am   BACKBONE|DICT|INTERRES
   115   59   60 1    
   116   59  125 1    
   117   60   61 1    
   118   60   62 1    
   119   60  126 1    
   120   61  127 1    
   121   61  128 1    
   122   61  129 1    
   123   62   63 2    
   124   62   64 am   BACKBONE|DICT|INTERRES
   125   64   65 1    
   126   64  130 1    
   127   65   66 1    
   128   65   69 1    
   129   65  131 1    
   130   66   67 am   BACKBONE|DICT|INTERRES
   131   66   68 2    
   132   67  132 1    
   133   67  133 1    
   134   69   70 1    
   135   69  134 1    
   136   69  135 1    
   137   70   71 1    
   138   71  136 1    
   139   71  137 1    
@<TRIPOS>SUBSTRUCTURE
     1 UNK         1 GROUP             0       ****    0 ROOT    
