@<TRIPOS>MOLECULE
3R136
137   139    1
SMALL
USER_CHARGES


@<TRIPOS>ATOM
      1 CA         26.6320   19.6597    3.5689 C.3       0 UNK        -0.1979 
      2 C          26.8850   20.6625    2.4537 C.2       0 UNK         0.4864 
      3 O          26.1170   21.6126    2.2999 O.2       0 UNK        -0.5359 
      4 N          27.9680   20.4725    1.6861 N.am      1 UNK        -0.4318 
      5 CA         28.3728   21.3076    0.5439 C.3       1 UNK         0.0824 
      6 C6         29.5632   20.6891   -0.2291 C.3       12 UNK        -0.0944 
      7 S7         31.0333   20.3527    0.8065 S.3       12 UNK        -0.2672 
      8 C8         32.3700   21.1058   -0.1724 C.3       12 UNK         0.0333 
      9 C9         32.6087   22.5634    0.1969 C.ar      12 UNK        -0.0807 
     10 C10        33.6011   22.8930    1.1264 C.ar      12 UNK        -0.0894 
     11 C11        33.8873   24.2280    1.4286 C.ar      12 UNK        -0.0804 
     12 C12        33.1617   25.2352    0.7829 C.ar      12 UNK        -0.0824 
     13 C13        32.1389   24.9238   -0.1200 C.ar      12 UNK        -0.0762 
     14 C14        31.8747   23.5836   -0.4165 C.ar      12 UNK        -0.0782 
     15 C15        31.3396   26.0355   -0.7923 C.3       12 UNK         0.0230 
     16 S16        30.7853   27.2814    0.4119 S.3       12 UNK        -0.2608 
     17 C17        30.0469   28.5723   -0.6449 C.3       12 UNK        -0.0989 
     18 CA         28.6008   28.9452   -0.2244 C.3       5 UNK         0.0716 
     19 N          27.6908   27.8024   -0.3241 N.am      5 UNK        -0.4135 
     20 C          26.9326   27.5182   -1.3909 C.2       4 UNK         0.5031 
     21 O          26.8727   28.2343   -2.3916 O.2       4 UNK        -0.5229 
     22 CA         26.1052   26.2185   -1.3674 C.3       4 UNK         0.0329 
     23 CB         26.6802   25.2000   -2.3660 C.3       4 UNK        -0.2001 
     24 N          26.0227   25.5985   -0.0432 N.am      4 UNK        -0.4303 
     25 C          25.2411   26.0415    0.9536 C.2       3 UNK         0.5044 
     26 O          24.4852   27.0074    0.8464 O.2       3 UNK        -0.5152 
     27 CA         25.3343   25.3136    2.3088 C.3       3 UNK         0.0319 
     28 CB         24.1890   24.2996    2.4505 C.3       3 UNK        -0.2001 
     29 N          26.6170   24.6385    2.5341 N.am      3 UNK        -0.4354 
     30 C          27.8013   25.2697    2.6047 C.2       2 UNK         0.4964 
     31 O          27.9128   26.4902    2.5075 O.2       2 UNK        -0.5047 
     32 CA         29.0698   24.4053    2.7521 C.3       2 UNK         0.0288 
     33 CB         29.4448   24.2512    4.2353 C.3       2 UNK        -0.2113 
     34 N          28.9534   23.0696    2.1627 N.am      2 UNK        -0.4145 
     35 C          28.6199   22.7914    0.8938 C.2       1 UNK         0.5006 
     36 O          28.4439   23.6503    0.0287 O.2       1 UNK        -0.5103 
     37 C          28.5029   29.6110    1.1648 C.2       5 UNK         0.5055 
     38 O          29.4766   30.2047    1.6298 O.2       5 UNK        -0.5220 
     39 N          27.3231   29.5328    1.7999 N.am      6 UNK        -0.4450 
     40 CA         27.0659   29.9901    3.1720 C.3       6 UNK         0.0367 
     41 CB         25.6379   29.5843    3.5713 C.3       6 UNK        -0.1929 
     42 C          27.2888   31.4965    3.4171 C.2       6 UNK         0.5070 
     43 O          27.4694   31.8982    4.5668 O.2       6 UNK        -0.5237 
     44 N          27.2712   32.3011    2.3463 N.am      7 UNK        -0.4739 
     45 CA         27.5702   33.7342    2.3719 C.3       7 UNK         0.0276 
     46 CB         26.9077   34.3972    1.1523 C.3       7 UNK        -0.1927 
     47 C          29.0793   34.0516    2.4018 C.2       7 UNK         0.5013 
     48 O          29.4334   35.1965    2.6897 O.2       7 UNK        -0.5193 
     49 N          29.9392   33.0733    2.0808 N.am      8 UNK        -0.4253 
     50 CA         31.3964   33.2250    2.0677 C.3       8 UNK         0.0242 
     51 CB         31.9998   32.1969    1.0927 C.3       8 UNK        -0.2000 
     52 C          32.0006   33.0641    3.4737 C.2       8 UNK         0.4948 
     53 O          31.3204   32.6265    4.4055 O.2       8 UNK        -0.5275 
     54 N          33.2886   33.4107    3.5922 N.am      9 UNK        -0.4246 
     55 CA         34.1005   33.2024    4.7929 C.3       9 UNK         0.0261 
     56 CB         35.4022   34.0106    4.6592 C.3       9 UNK        -0.1959 
     57 C          34.4142   31.7118    5.0162 C.2       9 UNK         0.5033 
     58 O          34.4232   30.9347    4.0563 O.2       9 UNK        -0.5390 
     59 N          34.6970   31.3537    6.2775 N.am      10 UNK        -0.4215 
     60 CA         34.9913   29.9992    6.7612 C.3       10 UNK         0.0240 
     61 CB         36.3608   29.5100    6.2322 C.3       10 UNK        -0.1982 
     62 C          33.8172   29.0443    6.4714 C.2       10 UNK         0.4970 
     63 O          32.7518   29.2182    7.0652 O.2       10 UNK        -0.4916 
     64 N          34.0214   28.0758    5.5719 N.am      11 UNK        -0.4279 
     65 CA         32.9804   27.1772    5.0549 C.3       11 UNK         0.1003 
     66 C          31.9445   27.8514    4.1075 C.2       11 UNK         0.5709 
     67 N          32.1890   29.0377    3.5630 N.am      11 UNK        -0.7358 
     68 O          30.8741   27.2941    3.8972 O.2       11 UNK        -0.4999 
     69 C69        33.5837   25.8772    4.4522 C.3       12 UNK        -0.0954 
     70 S70        34.9130   26.1705    3.2352 S.3       12 UNK        -0.2268 
     71 C71        35.0170   24.5418    2.4121 C.3       12 UNK         0.0203 
     72 H72        25.6633   19.1811    3.4283 H         1 UNK         0.0888 
     73 H73        27.3943   18.8813    3.5984 H         1 UNK         0.0888 
     74 H74        26.6254   20.1659    4.5337 H         1 UNK         0.0888 
     75 H75        28.5755   19.6869    1.8742 H         1 UNK         0.3017 
     76 H76        27.5200   21.3130   -0.1385 H         1 UNK         0.0873 
     77 H77        29.2512   19.7392   -0.6661 H         1 UNK         0.0745 
     78 H78        29.8306   21.3180   -1.0797 H         1 UNK         0.0745 
     79 H79        33.2818   20.5310   -0.0025 H         1 UNK         0.0705 
     80 H80        32.1589   21.0118   -1.2387 H         1 UNK         0.0705 
     81 H81        34.1698   22.1047    1.6010 H         1 UNK         0.1334 
     82 H82        33.3807   26.2740    0.9846 H         1 UNK         0.1417 
     83 H83        31.1021   23.3361   -1.1311 H         1 UNK         0.1562 
     84 H84        30.4640   25.6308   -1.3030 H         1 UNK         0.0748 
     85 H85        31.9631   26.5122   -1.5496 H         1 UNK         0.0748 
     86 H86        30.0491   28.2381   -1.6834 H         1 UNK         0.0940 
     87 H87        30.6935   29.4515   -0.6185 H         1 UNK         0.0940 
     88 H88        28.2623   29.7234   -0.9115 H         1 UNK         0.0703 
     89 H89        27.7032   27.1720    0.4712 H         1 UNK         0.3081 
     90 H90        25.0931   26.4719   -1.6902 H         1 UNK         0.0719 
     91 H91        26.6522   25.5937   -3.3829 H         1 UNK         0.0809 
     92 H92        27.7198   24.9581   -2.1428 H         1 UNK         0.0809 
     93 H93        26.1099   24.2710   -2.3632 H         1 UNK         0.0809 
     94 H94        26.6554   24.8253    0.1328 H         1 UNK         0.2990 
     95 H95        25.2195   26.0658    3.0914 H         1 UNK         0.0690 
     96 H96        23.2192   24.7891    2.3514 H         1 UNK         0.0788 
     97 H97        24.2079   23.8111    3.4249 H         1 UNK         0.0788 
     98 H98        24.2422   23.5234    1.6859 H         1 UNK         0.0788 
     99 H99        26.5915   23.6244    2.5810 H         1 UNK         0.2993 
    100 H100       29.8804   24.9275    2.2383 H         1 UNK         0.0949 
    101 H101       29.4945   25.2213    4.7307 H         1 UNK         0.0767 
    102 H102       28.7135   23.6500    4.7768 H         1 UNK         0.0767 
    103 H103       30.4222   23.7816    4.3488 H         1 UNK         0.0767 
    104 H104       29.0835   22.2889    2.7886 H         1 UNK         0.3013 
    105 H105       26.5685   29.0420    1.3423 H         1 UNK         0.3121 
    106 H106       27.7652   29.4573    3.8205 H         1 UNK         0.0774 
    107 H107       25.5024   28.5045    3.5119 H         1 UNK         0.0815 
    108 H108       25.4195   29.8797    4.5985 H         1 UNK         0.0815 
    109 H109       24.8909   30.0539    2.9302 H         1 UNK         0.0815 
    110 H110       27.1081   31.8834    1.4419 H         1 UNK         0.2987 
    111 H111       27.1323   34.1676    3.2740 H         1 UNK         0.0949 
    112 H112       27.3062   34.0082    0.2144 H         1 UNK         0.0806 
    113 H113       25.8289   34.2398    1.1515 H         1 UNK         0.0806 
    114 H114       27.0751   35.4753    1.1545 H         1 UNK         0.0806 
    115 H115       29.5890   32.1303    1.9358 H         1 UNK         0.3010 
    116 H116       31.6407   34.2256    1.7041 H         1 UNK         0.0829 
    117 H117       31.8972   31.1774    1.4653 H         1 UNK         0.0813 
    118 H118       31.5216   32.2451    0.1143 H         1 UNK         0.0813 
    119 H119       33.0647   32.3747    0.9399 H         1 UNK         0.0813 
    120 H120       33.7822   33.7226    2.7688 H         1 UNK         0.3038 
    121 H121       33.5403   33.5748    5.6535 H         1 UNK         0.0769 
    122 H122       36.0011   33.6731    3.8121 H         1 UNK         0.0811 
    123 H123       36.0201   33.9123    5.5527 H         1 UNK         0.0811 
    124 H124       35.1986   35.0732    4.5250 H         1 UNK         0.0811 
    125 H125       34.6414   32.0639    6.9947 H         1 UNK         0.3204 
    126 H126       35.0661   30.0656    7.8478 H         1 UNK         0.0748 
    127 H127       36.6043   28.5216    6.6246 H         1 UNK         0.0771 
    128 H128       36.3939   29.4529    5.1437 H         1 UNK         0.0771 
    129 H129       37.1599   30.1815    6.5466 H         1 UNK         0.0771 
    130 H130       34.9123   28.0264    5.1004 H         1 UNK         0.2980 
    131 H131       32.3938   26.8598    5.9194 H         1 UNK         0.0545 
    132 H132       33.0477   29.5448    3.7503 H         1 UNK         0.3459 
    133 H133       31.4802   29.4397    2.9674 H         1 UNK         0.3459 
    134 H134       32.8040   25.2634    3.9964 H         1 UNK         0.0616 
    135 H135       34.0049   25.2702    5.2548 H         1 UNK         0.0616 
    136 H136       35.0684   23.7698    3.1816 H         1 UNK         0.0634 
    137 H137       35.9607   24.4977    1.8673 H         1 UNK         0.0634 
@<TRIPOS>BOND
     1    1    2 1    
     2    1   72 1    
     3    1   73 1    
     4    1   74 1    
     5    2    3 2    
     6    2    4 am   BACKBONE|DICT|INTERRES
     7    4    5 1    
     8    4   75 1    
     9    5    6 1    
    10    5   35 1    
    11    5   76 1    
    12    6    7 1    
    13    6   77 1    
    14    6   78 1    
    15    7    8 1    
    16    8    9 1    
    17    8   79 1    
    18    8   80 1    
    19    9   10 ar   
    20    9   14 ar   
    21   10   11 ar   
    22   10   81 1    
    23   11   12 ar   
    24   11   71 1    
    25   12   13 ar   
    26   12   82 1    
    27   13   14 ar   
    28   13   15 1    
    29   14   83 1    
    30   15   16 1    
    31   15   84 1    
    32   15   85 1    
    33   16   17 1    
    34   17   18 1    
    35   17   86 1    
    36   17   87 1    
    37   18   19 1    
    38   18   37 1    
    39   18   88 1    
    40   19   20 am   BACKBONE|DICT|INTERRES
    41   19   89 1    
    42   20   21 2    
    43   20   22 1    
    44   22   23 1    
    45   22   24 1    
    46   22   90 1    
    47   23   91 1    
    48   23   92 1    
    49   23   93 1    
    50   24   25 am   BACKBONE|DICT|INTERRES
    51   24   94 1    
    52   25   26 2    
    53   25   27 1    
    54   27   28 1    
    55   27   29 1    
    56   27   95 1    
    57   28   96 1    
    58   28   97 1    
    59   28   98 1    
    60   29   30 am   BACKBONE|DICT|INTERRES
    61   29   99 1    
    62   30   31 2    
    63   30   32 1    
    64   32   33 1    
    65   32   34 1    
    66   32  100 1    
    67   33  101 1    
    68   33  102 1    
    69   33  103 1    
    70   34   35 am   BACKBONE|DICT|INTERRES
    71   34  104 1    
    72   35   36 2    
    73   37   38 2    
    74   37   39 am   BACKBONE|DICT|INTERRES
    75   39   40 1    
    76   39  105 1    
    77   40   41 1    
    78   40   42 1    
    79   40  106 1    
    80   41  107 1    
    81   41  108 1    
    82   41  109 1    
    83   42   43 2    
    84   42   44 am   BACKBONE|DICT|INTERRES
    85   44   45 1    
    86   44  110 1    
    87   45   46 1    
    88   45   47 1    
    89   45  111 1    
    90   46  112 1    
    91   46  113 1    
    92   46  114 1    
    93   47   48 2    
    94   47   49 am   BACKBONE|DICT|INTERRES
    95   49   50 1    
    96   49  115 1    
    97   50   51 1    
    98   50   52 1    
    99   50  116 1    
   100   51  117 1    
   101   51  118 1    
   102   51  119 1    
   103   52   53 2    
   104   52   54 am   BACKBONE|DICT|INTERRES
   105   54   55 1    
   106   54  120 1    
   107   55   56 1    
   108   55   57 1    
   109   55  121 1    
   110   56  122 1    
   111   56  123 1    
   112   56  124 1    
   113   57   58 2    
   114   57   59 am   BACKBONE|DICT|INTERRES
   115   59   60 1    
   116   59  125 1    
   117   60   61 1    
   118   60   62 1    
   119   60  126 1    
   120   61  127 1    
   121   61  128 1    
   122   61  129 1    
   123   62   63 2    
   124   62   64 am   BACKBONE|DICT|INTERRES
   125   64   65 1    
   126   64  130 1    
   127   65   66 1    
   128   65   69 1    
   129   65  131 1    
   130   66   67 am   BACKBONE|DICT|INTERRES
   131   66   68 2    
   132   67  132 1    
   133   67  133 1    
   134   69   70 1    
   135   69  134 1    
   136   69  135 1    
   137   70   71 1    
   138   71  136 1    
   139   71  137 1    
@<TRIPOS>SUBSTRUCTURE
     1 UNK         1 GROUP             0       ****    0 ROOT    
