@<TRIPOS>MOLECULE
3R136
137   139    1
SMALL
USER_CHARGES


@<TRIPOS>ATOM
      1 CA         28.9504   22.5985   -3.7047 C.3       0 UNK        -0.1979 
      2 C          29.1692   22.2618   -2.2365 C.2       0 UNK         0.4864 
      3 O          28.7737   21.1794   -1.8011 O.2       0 UNK        -0.5359 
      4 N          29.7962   23.1859   -1.4929 N.am      1 UNK        -0.4318 
      5 CA         30.0821   23.1456   -0.0504 C.3       1 UNK         0.0824 
      6 C6         30.9393   21.9217    0.3935 C.3       12 UNK        -0.0944 
      7 S7         32.6211   21.9746   -0.3146 S.3       12 UNK        -0.2672 
      8 C8         33.6188   22.5125    1.1187 C.3       12 UNK         0.0333 
      9 C9         33.0956   23.8047    1.7333 C.ar      12 UNK        -0.0807 
     10 C10        32.6201   23.8228    3.0477 C.ar      12 UNK        -0.0894 
     11 C11        32.0897   24.9943    3.5985 C.ar      12 UNK        -0.0804 
     12 C12        32.0175   26.1500    2.8117 C.ar      12 UNK        -0.0824 
     13 C13        32.4860   26.1405    1.4926 C.ar      12 UNK        -0.0762 
     14 C14        33.0501   24.9740    0.9715 C.ar      12 UNK        -0.0782 
     15 C15        32.3534   27.3645    0.5994 C.3       12 UNK         0.0230 
     16 S16        30.7326   27.3981   -0.2271 S.3       12 UNK        -0.2608 
     17 C17        29.6985   28.1995    1.0436 C.3       12 UNK        -0.0989 
     18 CA         28.3362   28.6579    0.4698 C.3       5 UNK         0.0716 
     19 N          27.5054   27.5206    0.0821 N.am      5 UNK        -0.4135 
     20 C          26.7244   27.4674   -1.0046 C.2       4 UNK         0.5031 
     21 O          26.6425   28.3781   -1.8299 O.2       4 UNK        -0.5229 
     22 CA         25.8706   26.2001   -1.1996 C.3       4 UNK         0.0329 
     23 CB         26.5830   25.2174   -2.1414 C.3       4 UNK        -0.2001 
     24 N          25.5501   25.5286    0.0639 N.am      4 UNK        -0.4303 
     25 C          24.7159   26.0352    0.9864 C.2       3 UNK         0.5044 
     26 O          24.0587   27.0626    0.8150 O.2       3 UNK        -0.5152 
     27 CA         24.5995   25.3021    2.3371 C.3       3 UNK         0.0319 
     28 CB         23.3131   24.4616    2.3805 C.3       3 UNK        -0.2001 
     29 N          25.7396   24.4469    2.6821 N.am      3 UNK        -0.4354 
     30 C          27.0135   24.8436    2.8122 C.2       2 UNK         0.4964 
     31 O          27.3953   25.9977    2.6188 O.2       2 UNK        -0.5047 
     32 CA         28.0543   23.7688    3.1774 C.3       2 UNK         0.0288 
     33 CB         27.4494   22.3998    3.5658 C.3       2 UNK        -0.2113 
     34 N          29.0532   23.5954    2.1165 N.am      2 UNK        -0.4145 
     35 C          28.8202   23.3149    0.8238 C.2       1 UNK         0.5006 
     36 O          27.6885   23.2158    0.3396 O.2       1 UNK        -0.5103 
     37 C          27.5315   29.5129    1.4646 C.2       5 UNK         0.5055 
     38 O          27.8428   29.5405    2.6564 O.2       5 UNK        -0.5220 
     39 N          26.4855   30.1785    0.9540 N.am      6 UNK        -0.4450 
     40 CA         25.5683   31.0270    1.7243 C.3       6 UNK         0.0367 
     41 CB         24.3623   31.3905    0.8434 C.3       6 UNK        -0.1929 
     42 C          26.2208   32.2995    2.3003 C.2       6 UNK         0.5070 
     43 O          25.7098   32.8506    3.2758 O.2       6 UNK        -0.5237 
     44 N          27.3328   32.7359    1.7011 N.am      7 UNK        -0.4739 
     45 CA         28.1947   33.8157    2.1673 C.3       7 UNK         0.0276 
     46 CB         27.7775   35.1378    1.5004 C.3       7 UNK        -0.1927 
     47 C          29.6405   33.4462    1.8148 C.2       7 UNK         0.5013 
     48 O          29.8519   32.6806    0.8692 O.2       7 UNK        -0.5193 
     49 N          30.5974   34.0025    2.5739 N.am      8 UNK        -0.4253 
     50 CA         32.0506   33.8021    2.4521 C.3       8 UNK         0.0242 
     51 CB         32.5833   34.4712    1.1663 C.3       8 UNK        -0.2000 
     52 C          32.4675   32.3210    2.5748 C.2       8 UNK         0.4948 
     53 O          33.2761   31.8343    1.7813 O.2       8 UNK        -0.5275 
     54 N          31.8780   31.6228    3.5552 N.am      9 UNK        -0.4246 
     55 CA         32.0858   30.1977    3.8027 C.3       9 UNK         0.0261 
     56 CB         31.0417   29.6970    4.8149 C.3       9 UNK        -0.1959 
     57 C          33.5076   29.8915    4.2959 C.2       9 UNK         0.5033 
     58 O          33.9586   30.5032    5.2670 O.2       9 UNK        -0.5390 
     59 N          34.1539   28.9000    3.6652 N.am      10 UNK        -0.4215 
     60 CA         35.4708   28.3674    4.0371 C.3       10 UNK         0.0240 
     61 CB         35.8987   27.3190    2.9962 C.3       10 UNK        -0.1982 
     62 C          35.5137   27.7617    5.4524 C.2       10 UNK         0.4970 
     63 O          36.5744   27.7548    6.0777 O.2       10 UNK        -0.4916 
     64 N          34.3559   27.2903    5.9295 N.am      11 UNK        -0.4279 
     65 CA         34.1227   26.8179    7.2991 C.3       11 UNK         0.1003 
     66 C          34.1288   27.9416    8.3791 C.2       11 UNK         0.5709 
     67 N          34.1094   29.2225    8.0239 N.am      11 UNK        -0.7358 
     68 O          34.1579   27.6413    9.5702 O.2       11 UNK        -0.4999 
     69 C69        32.8233   25.9750    7.3877 C.3       12 UNK        -0.0954 
     70 S70        32.8269   24.5477    6.2475 S.3       12 UNK        -0.2268 
     71 C71        31.5466   24.9875    5.0230 C.3       12 UNK         0.0203 
     72 H72        29.3523   23.5776   -3.9650 H         1 UNK         0.0888 
     73 H73        29.4346   21.8545   -4.3367 H         1 UNK         0.0888 
     74 H74        27.8848   22.5993   -3.9331 H         1 UNK         0.0888 
     75 H75        30.0816   24.0433   -1.9438 H         1 UNK         0.3017 
     76 H76        30.6624   24.0490    0.1327 H         1 UNK         0.0873 
     77 H77        31.0289   21.8653    1.4792 H         1 UNK         0.0745 
     78 H78        30.4690   20.9827    0.1013 H         1 UNK         0.0745 
     79 H79        33.6369   21.7095    1.8573 H         1 UNK         0.0705 
     80 H80        34.6510   22.6599    0.7985 H         1 UNK         0.0705 
     81 H81        32.6534   22.9214    3.6450 H         1 UNK         0.1334 
     82 H82        31.5689   27.0463    3.2140 H         1 UNK         0.1417 
     83 H83        33.4044   24.9566   -0.0507 H         1 UNK         0.1562 
     84 H84        33.1298   27.3488   -0.1673 H         1 UNK         0.0748 
     85 H85        32.5127   28.2834    1.1601 H         1 UNK         0.0748 
     86 H86        29.5585   27.5146    1.8819 H         1 UNK         0.0940 
     87 H87        30.2408   29.0637    1.4286 H         1 UNK         0.0940 
     88 H88        28.5421   29.2872   -0.3992 H         1 UNK         0.0703 
     89 H89        27.4510   26.7753    0.7688 H         1 UNK         0.3081 
     90 H90        24.9323   26.5014   -1.6702 H         1 UNK         0.0719 
     91 H91        27.5608   24.9331   -1.7544 H         1 UNK         0.0809 
     92 H92        26.0007   24.3075   -2.2875 H         1 UNK         0.0809 
     93 H93        26.7410   25.6648   -3.1236 H         1 UNK         0.0809 
     94 H94        26.0634   24.6795    0.2760 H         1 UNK         0.2990 
     95 H95        24.5305   26.0713    3.1091 H         1 UNK         0.0690 
     96 H96        23.1569   24.0230    3.3663 H         1 UNK         0.0788 
     97 H97        23.3363   23.6515    1.6504 H         1 UNK         0.0788 
     98 H98        22.4377   25.0742    2.1596 H         1 UNK         0.0788 
     99 H99        25.5379   23.4678    2.8253 H         1 UNK         0.2993 
    100 H100       28.5831   24.1555    4.0490 H         1 UNK         0.0949 
    101 H101       28.2289   21.7116    3.8934 H         1 UNK         0.0767 
    102 H102       26.7462   22.4964    4.3944 H         1 UNK         0.0767 
    103 H103       26.9271   21.9260    2.7336 H         1 UNK         0.0767 
    104 H104       30.0129   23.7271    2.4047 H         1 UNK         0.3013 
    105 H105       26.2898   30.0747   -0.0332 H         1 UNK         0.3121 
    106 H106       25.2070   30.4391    2.5709 H         1 UNK         0.0774 
    107 H107       24.6617   31.9636   -0.0350 H         1 UNK         0.0815 
    108 H108       23.6427   31.9953    1.3972 H         1 UNK         0.0815 
    109 H109       23.8373   30.4978    0.5020 H         1 UNK         0.0815 
    110 H110       27.7241   32.1983    0.9375 H         1 UNK         0.2987 
    111 H111       28.1136   33.9079    3.2530 H         1 UNK         0.0949 
    112 H112       27.8557   35.0823    0.4138 H         1 UNK         0.0806 
    113 H113       26.7486   35.3988    1.7486 H         1 UNK         0.0806 
    114 H114       28.4097   35.9622    1.8323 H         1 UNK         0.0806 
    115 H115       30.3086   34.6183    3.3222 H         1 UNK         0.3010 
    116 H116       32.5071   34.3144    3.3006 H         1 UNK         0.0829 
    117 H117       32.3033   35.5235    1.1208 H         1 UNK         0.0813 
    118 H118       33.6722   34.4246    1.1233 H         1 UNK         0.0813 
    119 H119       32.2020   33.9835    0.2684 H         1 UNK         0.0813 
    120 H120       31.2478   32.1047    4.1791 H         1 UNK         0.3038 
    121 H121       31.9204   29.6784    2.8603 H         1 UNK         0.0769 
    122 H122       31.1179   30.2247    5.7667 H         1 UNK         0.0811 
    123 H123       31.1686   28.6348    5.0251 H         1 UNK         0.0811 
    124 H124       30.0275   29.8310    4.4371 H         1 UNK         0.0811 
    125 H125       33.7209   28.4713    2.8623 H         1 UNK         0.3204 
    126 H126       36.1829   29.1949    4.0119 H         1 UNK         0.0748 
    127 H127       36.8926   26.9296    3.2212 H         1 UNK         0.0771 
    128 H128       35.2150   26.4687    2.9727 H         1 UNK         0.0771 
    129 H129       35.9400   27.7452    1.9936 H         1 UNK         0.0771 
    130 H130       33.5477   27.3104    5.3298 H         1 UNK         0.2980 
    131 H131       34.9560   26.1603    7.5538 H         1 UNK         0.0545 
    132 H132       34.0963   29.5045    7.0504 H         1 UNK         0.3459 
    133 H133       34.1179   29.9267    8.7441 H         1 UNK         0.3459 
    134 H134       32.7042   25.5743    8.3960 H         1 UNK         0.0616 
    135 H135       31.9473   26.6010    7.2124 H         1 UNK         0.0616 
    136 H136       30.7469   24.2499    5.0919 H         1 UNK         0.0634 
    137 H137       31.0914   25.9484    5.2637 H         1 UNK         0.0634 
@<TRIPOS>BOND
     1    1    2 1    
     2    1   72 1    
     3    1   73 1    
     4    1   74 1    
     5    2    3 2    
     6    2    4 am   BACKBONE|DICT|INTERRES
     7    4    5 1    
     8    4   75 1    
     9    5    6 1    
    10    5   35 1    
    11    5   76 1    
    12    6    7 1    
    13    6   77 1    
    14    6   78 1    
    15    7    8 1    
    16    8    9 1    
    17    8   79 1    
    18    8   80 1    
    19    9   10 ar   
    20    9   14 ar   
    21   10   11 ar   
    22   10   81 1    
    23   11   12 ar   
    24   11   71 1    
    25   12   13 ar   
    26   12   82 1    
    27   13   14 ar   
    28   13   15 1    
    29   14   83 1    
    30   15   16 1    
    31   15   84 1    
    32   15   85 1    
    33   16   17 1    
    34   17   18 1    
    35   17   86 1    
    36   17   87 1    
    37   18   19 1    
    38   18   37 1    
    39   18   88 1    
    40   19   20 am   BACKBONE|DICT|INTERRES
    41   19   89 1    
    42   20   21 2    
    43   20   22 1    
    44   22   23 1    
    45   22   24 1    
    46   22   90 1    
    47   23   91 1    
    48   23   92 1    
    49   23   93 1    
    50   24   25 am   BACKBONE|DICT|INTERRES
    51   24   94 1    
    52   25   26 2    
    53   25   27 1    
    54   27   28 1    
    55   27   29 1    
    56   27   95 1    
    57   28   96 1    
    58   28   97 1    
    59   28   98 1    
    60   29   30 am   BACKBONE|DICT|INTERRES
    61   29   99 1    
    62   30   31 2    
    63   30   32 1    
    64   32   33 1    
    65   32   34 1    
    66   32  100 1    
    67   33  101 1    
    68   33  102 1    
    69   33  103 1    
    70   34   35 am   BACKBONE|DICT|INTERRES
    71   34  104 1    
    72   35   36 2    
    73   37   38 2    
    74   37   39 am   BACKBONE|DICT|INTERRES
    75   39   40 1    
    76   39  105 1    
    77   40   41 1    
    78   40   42 1    
    79   40  106 1    
    80   41  107 1    
    81   41  108 1    
    82   41  109 1    
    83   42   43 2    
    84   42   44 am   BACKBONE|DICT|INTERRES
    85   44   45 1    
    86   44  110 1    
    87   45   46 1    
    88   45   47 1    
    89   45  111 1    
    90   46  112 1    
    91   46  113 1    
    92   46  114 1    
    93   47   48 2    
    94   47   49 am   BACKBONE|DICT|INTERRES
    95   49   50 1    
    96   49  115 1    
    97   50   51 1    
    98   50   52 1    
    99   50  116 1    
   100   51  117 1    
   101   51  118 1    
   102   51  119 1    
   103   52   53 2    
   104   52   54 am   BACKBONE|DICT|INTERRES
   105   54   55 1    
   106   54  120 1    
   107   55   56 1    
   108   55   57 1    
   109   55  121 1    
   110   56  122 1    
   111   56  123 1    
   112   56  124 1    
   113   57   58 2    
   114   57   59 am   BACKBONE|DICT|INTERRES
   115   59   60 1    
   116   59  125 1    
   117   60   61 1    
   118   60   62 1    
   119   60  126 1    
   120   61  127 1    
   121   61  128 1    
   122   61  129 1    
   123   62   63 2    
   124   62   64 am   BACKBONE|DICT|INTERRES
   125   64   65 1    
   126   64  130 1    
   127   65   66 1    
   128   65   69 1    
   129   65  131 1    
   130   66   67 am   BACKBONE|DICT|INTERRES
   131   66   68 2    
   132   67  132 1    
   133   67  133 1    
   134   69   70 1    
   135   69  134 1    
   136   69  135 1    
   137   70   71 1    
   138   71  136 1    
   139   71  137 1    
@<TRIPOS>SUBSTRUCTURE
     1 UNK         1 GROUP             0       ****    0 ROOT    
