@<TRIPOS>MOLECULE
3R136
137   139    1
SMALL
USER_CHARGES


@<TRIPOS>ATOM
      1 CA         26.2528   20.7464    3.0947 C.3       0 UNK        -0.1979 
      2 C          26.8825   22.1311    3.0899 C.2       0 UNK         0.4864 
      3 O          26.6961   22.8878    4.0442 O.2       0 UNK        -0.5359 
      4 N          27.6102   22.4708    2.0156 N.am      1 UNK        -0.4318 
      5 CA         28.3454   23.7223    1.7682 C.3       1 UNK         0.0824 
      6 C6         29.4806   24.0016    2.7896 C.3       12 UNK        -0.0944 
      7 S7         30.9007   22.8945    2.5010 S.3       12 UNK        -0.2672 
      8 C8         32.3165   23.9960    2.8529 C.3       12 UNK         0.0333 
      9 C9         32.6973   25.0017    1.7602 C.ar      12 UNK        -0.0807 
     10 C10        33.9672   25.5864    1.8253 C.ar      12 UNK        -0.0894 
     11 C11        34.3660   26.5504    0.8950 C.ar      12 UNK        -0.0804 
     12 C12        33.4886   26.9208   -0.1253 C.ar      12 UNK        -0.0824 
     13 C13        32.2146   26.3529   -0.2083 C.ar      12 UNK        -0.0762 
     14 C14        31.8281   25.3901    0.7292 C.ar      12 UNK        -0.0782 
     15 C15        31.2476   26.8157   -1.2887 C.3       12 UNK         0.0230 
     16 S16        30.7883   28.5476   -0.9998 S.3       12 UNK        -0.2608 
     17 C17        29.5278   28.8630   -2.2798 C.3       12 UNK        -0.0989 
     18 CA         28.0486   28.7825   -1.7933 C.3       5 UNK         0.0716 
     19 N          27.5383   27.4114   -1.7843 N.am      5 UNK        -0.4135 
     20 C          27.2082   26.7368   -2.8948 C.2       4 UNK         0.5031 
     21 O          27.2843   27.2135   -4.0286 O.2       4 UNK        -0.5229 
     22 CA         26.7117   25.2934   -2.7405 C.3       4 UNK         0.0329 
     23 CB         27.8924   24.3282   -2.5355 C.3       4 UNK        -0.2001 
     24 N          25.7590   25.1584   -1.6400 N.am      4 UNK        -0.4303 
     25 C          24.4270   25.2489   -1.7701 C.2       3 UNK         0.5044 
     26 O          23.8598   25.4765   -2.8395 O.2       3 UNK        -0.5152 
     27 CA         23.5676   25.0196   -0.5112 C.3       3 UNK         0.0319 
     28 CB         22.9548   23.6094   -0.5326 C.3       3 UNK        -0.2001 
     29 N          24.3189   25.1879    0.7328 N.am      3 UNK        -0.4354 
     30 C          24.6290   26.3716    1.2783 C.2       2 UNK         0.4964 
     31 O          24.2146   27.4501    0.8536 O.2       2 UNK        -0.5047 
     32 CA         25.5813   26.3459    2.4874 C.3       2 UNK         0.0288 
     33 CB         24.7910   26.3698    3.8050 C.3       2 UNK        -0.2113 
     34 N          26.5030   25.2018    2.4980 N.am      2 UNK        -0.4145 
     35 C          27.4403   24.9542    1.5740 C.2       1 UNK         0.5006 
     36 O          27.5965   25.6482    0.5698 O.2       1 UNK        -0.5103 
     37 C          27.7982   29.4664   -0.4341 C.2       5 UNK         0.5055 
     38 O          27.4527   28.8051    0.5471 O.2       5 UNK        -0.5220 
     39 N          28.0188   30.7874   -0.4009 N.am      6 UNK        -0.4450 
     40 CA         27.8856   31.6314    0.7897 C.3       6 UNK         0.0367 
     41 CB         27.6017   33.0751    0.3407 C.3       6 UNK        -0.1929 
     42 C          29.1075   31.5936    1.7300 C.2       6 UNK         0.5070 
     43 O          29.0100   32.1120    2.8418 O.2       6 UNK        -0.5237 
     44 N          30.2327   31.0040    1.2950 N.am      7 UNK        -0.4739 
     45 CA         31.4786   30.9115    2.0724 C.3       7 UNK         0.0276 
     46 CB         32.6848   30.8144    1.1231 C.3       7 UNK        -0.1927 
     47 C          31.4900   29.7603    3.0975 C.2       7 UNK         0.5013 
     48 O          32.5021   29.5670    3.7759 O.2       7 UNK        -0.5193 
     49 N          30.3749   29.0273    3.2189 N.am      8 UNK        -0.4253 
     50 CA         30.1395   27.9926    4.2257 C.3       8 UNK         0.0242 
     51 CB         28.7173   27.4463    4.0433 C.3       8 UNK        -0.2000 
     52 C          30.3372   28.5442    5.6488 C.2       8 UNK         0.4948 
     53 O          29.6717   29.5118    6.0216 O.2       8 UNK        -0.5275 
     54 N          31.2891   27.9503    6.3804 N.am      9 UNK        -0.4246 
     55 CA         31.7868   28.3440    7.7068 C.3       9 UNK         0.0261 
     56 CB         30.6582   28.3681    8.7600 C.3       9 UNK        -0.1959 
     57 C          32.6306   29.6377    7.7339 C.2       9 UNK         0.5033 
     58 O          33.1616   29.9643    8.7971 O.2       9 UNK        -0.5390 
     59 N          32.7931   30.3283    6.5946 N.am      10 UNK        -0.4215 
     60 CA         33.7950   31.3841    6.4140 C.3       10 UNK         0.0240 
     61 CB         33.3262   32.4019    5.3607 C.3       10 UNK        -0.1982 
     62 C          35.1399   30.7535    6.0212 C.2       10 UNK         0.4970 
     63 O          36.1756   31.1565    6.5520 O.2       10 UNK        -0.4916 
     64 N          35.0889   29.7427    5.1415 N.am      11 UNK        -0.4279 
     65 CA         36.1805   28.7968    4.8762 C.3       11 UNK         0.1003 
     66 C          36.5672   27.9914    6.1484 C.2       11 UNK         0.5709 
     67 N          37.8536   27.7611    6.3724 N.am      11 UNK        -0.7358 
     68 O          35.7091   27.5386    6.9048 O.2       11 UNK        -0.4999 
     69 C69        35.8050   27.8239    3.7305 C.3       12 UNK        -0.0954 
     70 S70        35.7185   28.6449    2.1069 S.3       12 UNK        -0.2268 
     71 C71        35.7372   27.2036    0.9929 C.3       12 UNK         0.0203 
     72 H72        26.6115   20.1759    3.9509 H         1 UNK         0.0888 
     73 H73        25.1688   20.8275    3.1691 H         1 UNK         0.0888 
     74 H74        26.4902   20.1858    2.1907 H         1 UNK         0.0888 
     75 H75        27.6970   21.7908    1.2728 H         1 UNK         0.3017 
     76 H76        28.8146   23.5737    0.7939 H         1 UNK         0.0873 
     77 H77        29.8285   25.0331    2.7189 H         1 UNK         0.0745 
     78 H78        29.1364   23.8803    3.8174 H         1 UNK         0.0745 
     79 H79        32.1213   24.5382    3.7792 H         1 UNK         0.0705 
     80 H80        33.1770   23.3554    3.0524 H         1 UNK         0.0705 
     81 H81        34.6466   25.3016    2.6169 H         1 UNK         0.1334 
     82 H82        33.7844   27.6757   -0.8413 H         1 UNK         0.1417 
     83 H83        30.8410   24.9634    0.6506 H         1 UNK         0.1562 
     84 H84        30.3458   26.2018   -1.2973 H         1 UNK         0.0748 
     85 H85        31.7123   26.7153   -2.2705 H         1 UNK         0.0748 
     86 H86        29.6998   28.2007   -3.1295 H         1 UNK         0.0940 
     87 H87        29.7204   29.8642   -2.6683 H         1 UNK         0.0940 
     88 H88        27.4358   29.3368   -2.5080 H         1 UNK         0.0703 
     89 H89        27.4586   26.9806   -0.8650 H         1 UNK         0.3081 
     90 H90        26.2228   25.0108   -3.6756 H         1 UNK         0.0719 
     91 H91        28.4624   24.5574   -1.6360 H         1 UNK         0.0809 
     92 H92        27.5509   23.2957   -2.4619 H         1 UNK         0.0809 
     93 H93        28.5845   24.3802   -3.3770 H         1 UNK         0.0809 
     94 H94        26.1581   25.0640   -0.7142 H         1 UNK         0.2990 
     95 H95        22.7518   25.7456   -0.5321 H         1 UNK         0.0690 
     96 H96        22.2954   23.4500    0.3209 H         1 UNK         0.0788 
     97 H97        23.7218   22.8338   -0.5154 H         1 UNK         0.0788 
     98 H98        22.3579   23.4569   -1.4330 H         1 UNK         0.0788 
     99 H99        24.6786   24.3511    1.1679 H         1 UNK         0.2993 
    100 H100       26.1824   27.2555    2.4310 H         1 UNK         0.0949 
    101 H101       24.1090   27.2207    3.8369 H         1 UNK         0.0767 
    102 H102       24.1943   25.4657    3.9336 H         1 UNK         0.0767 
    103 H103       25.4572   26.4576    4.6635 H         1 UNK         0.0767 
    104 H104       26.4331   24.5438    3.2727 H         1 UNK         0.3013 
    105 H105       28.3147   31.2531   -1.2471 H         1 UNK         0.3121 
    106 H106       27.0266   31.2834    1.3680 H         1 UNK         0.0774 
    107 H107       27.4498   33.7297    1.2003 H         1 UNK         0.0815 
    108 H108       28.4275   33.4881   -0.2399 H         1 UNK         0.0815 
    109 H109       26.6992   33.1321   -0.2682 H         1 UNK         0.0815 
    110 H110       30.2328   30.5594    0.3864 H         1 UNK         0.2987 
    111 H111       31.5881   31.8361    2.6428 H         1 UNK         0.0949 
    112 H112       32.7475   29.8389    0.6422 H         1 UNK         0.0806 
    113 H113       32.6503   31.5775    0.3457 H         1 UNK         0.0806 
    114 H114       33.6169   30.9547    1.6719 H         1 UNK         0.0806 
    115 H115       29.5948   29.2666    2.6247 H         1 UNK         0.3010 
    116 H116       30.8518   27.1864    4.0377 H         1 UNK         0.0829 
    117 H117       28.5536   27.1433    3.0109 H         1 UNK         0.0813 
    118 H118       28.5423   26.5775    4.6789 H         1 UNK         0.0813 
    119 H119       27.9604   28.1925    4.2895 H         1 UNK         0.0813 
    120 H120       31.7901   27.1803    5.9582 H         1 UNK         0.3038 
    121 H121       32.4759   27.5490    7.9965 H         1 UNK         0.0769 
    122 H122       29.9650   29.1937    8.5980 H         1 UNK         0.0811 
    123 H123       31.0664   28.4867    9.7645 H         1 UNK         0.0811 
    124 H124       30.0860   27.4405    8.7521 H         1 UNK         0.0811 
    125 H125       32.3493   29.9841    5.7499 H         1 UNK         0.3204 
    126 H126       33.9292   31.9197    7.3564 H         1 UNK         0.0748 
    127 H127       33.9917   33.2657    5.3408 H         1 UNK         0.0771 
    128 H128       33.3211   31.9820    4.3558 H         1 UNK         0.0771 
    129 H129       32.3232   32.7693    5.5789 H         1 UNK         0.0771 
    130 H130       34.2006   29.5249    4.7001 H         1 UNK         0.2980 
    131 H131       37.0503   29.3801    4.5677 H         1 UNK         0.0545 
    132 H132       38.1206   27.2265    7.1842 H         1 UNK         0.3459 
    133 H133       38.5638   28.1170    5.7515 H         1 UNK         0.3459 
    134 H134       36.5419   27.0217    3.6556 H         1 UNK         0.0616 
    135 H135       34.8451   27.3469    3.9362 H         1 UNK         0.0616 
    136 H136       36.4818   26.4795    1.3266 H         1 UNK         0.0634 
    137 H137       36.0611   27.5346    0.0050 H         1 UNK         0.0634 
@<TRIPOS>BOND
     1    1    2 1    
     2    1   72 1    
     3    1   73 1    
     4    1   74 1    
     5    2    3 2    
     6    2    4 am   BACKBONE|DICT|INTERRES
     7    4    5 1    
     8    4   75 1    
     9    5    6 1    
    10    5   35 1    
    11    5   76 1    
    12    6    7 1    
    13    6   77 1    
    14    6   78 1    
    15    7    8 1    
    16    8    9 1    
    17    8   79 1    
    18    8   80 1    
    19    9   10 ar   
    20    9   14 ar   
    21   10   11 ar   
    22   10   81 1    
    23   11   12 ar   
    24   11   71 1    
    25   12   13 ar   
    26   12   82 1    
    27   13   14 ar   
    28   13   15 1    
    29   14   83 1    
    30   15   16 1    
    31   15   84 1    
    32   15   85 1    
    33   16   17 1    
    34   17   18 1    
    35   17   86 1    
    36   17   87 1    
    37   18   19 1    
    38   18   37 1    
    39   18   88 1    
    40   19   20 am   BACKBONE|DICT|INTERRES
    41   19   89 1    
    42   20   21 2    
    43   20   22 1    
    44   22   23 1    
    45   22   24 1    
    46   22   90 1    
    47   23   91 1    
    48   23   92 1    
    49   23   93 1    
    50   24   25 am   BACKBONE|DICT|INTERRES
    51   24   94 1    
    52   25   26 2    
    53   25   27 1    
    54   27   28 1    
    55   27   29 1    
    56   27   95 1    
    57   28   96 1    
    58   28   97 1    
    59   28   98 1    
    60   29   30 am   BACKBONE|DICT|INTERRES
    61   29   99 1    
    62   30   31 2    
    63   30   32 1    
    64   32   33 1    
    65   32   34 1    
    66   32  100 1    
    67   33  101 1    
    68   33  102 1    
    69   33  103 1    
    70   34   35 am   BACKBONE|DICT|INTERRES
    71   34  104 1    
    72   35   36 2    
    73   37   38 2    
    74   37   39 am   BACKBONE|DICT|INTERRES
    75   39   40 1    
    76   39  105 1    
    77   40   41 1    
    78   40   42 1    
    79   40  106 1    
    80   41  107 1    
    81   41  108 1    
    82   41  109 1    
    83   42   43 2    
    84   42   44 am   BACKBONE|DICT|INTERRES
    85   44   45 1    
    86   44  110 1    
    87   45   46 1    
    88   45   47 1    
    89   45  111 1    
    90   46  112 1    
    91   46  113 1    
    92   46  114 1    
    93   47   48 2    
    94   47   49 am   BACKBONE|DICT|INTERRES
    95   49   50 1    
    96   49  115 1    
    97   50   51 1    
    98   50   52 1    
    99   50  116 1    
   100   51  117 1    
   101   51  118 1    
   102   51  119 1    
   103   52   53 2    
   104   52   54 am   BACKBONE|DICT|INTERRES
   105   54   55 1    
   106   54  120 1    
   107   55   56 1    
   108   55   57 1    
   109   55  121 1    
   110   56  122 1    
   111   56  123 1    
   112   56  124 1    
   113   57   58 2    
   114   57   59 am   BACKBONE|DICT|INTERRES
   115   59   60 1    
   116   59  125 1    
   117   60   61 1    
   118   60   62 1    
   119   60  126 1    
   120   61  127 1    
   121   61  128 1    
   122   61  129 1    
   123   62   63 2    
   124   62   64 am   BACKBONE|DICT|INTERRES
   125   64   65 1    
   126   64  130 1    
   127   65   66 1    
   128   65   69 1    
   129   65  131 1    
   130   66   67 am   BACKBONE|DICT|INTERRES
   131   66   68 2    
   132   67  132 1    
   133   67  133 1    
   134   69   70 1    
   135   69  134 1    
   136   69  135 1    
   137   70   71 1    
   138   71  136 1    
   139   71  137 1    
@<TRIPOS>SUBSTRUCTURE
     1 UNK         1 GROUP             0       ****    0 ROOT    
