@<TRIPOS>MOLECULE
3R136
137   139    1
SMALL
USER_CHARGES


@<TRIPOS>ATOM
      1 CA         26.5584   20.6551   -2.9894 C.3       0 UNK        -0.1979 
      2 C          27.5132   21.7263   -2.4845 C.2       0 UNK         0.4864 
      3 O          27.4188   22.8797   -2.9066 O.2       0 UNK        -0.5359 
      4 N          28.4268   21.3592   -1.5748 N.am      1 UNK        -0.4318 
      5 CA         29.4310   22.2537   -0.9826 C.3       1 UNK         0.0824 
      6 C6         30.5787   21.4621   -0.3061 C.3       12 UNK        -0.0944 
      7 S7         30.0386   20.4481    1.1165 S.3       12 UNK        -0.2672 
      8 C8         31.3990   20.7065    2.3005 C.3       12 UNK         0.0333 
      9 C9         31.4319   22.1125    2.8914 C.ar      12 UNK        -0.0807 
     10 C10        32.4923   22.9765    2.5952 C.ar      12 UNK        -0.0894 
     11 C11        32.5753   24.2320    3.2044 C.ar      12 UNK        -0.0804 
     12 C12        31.5857   24.6245    4.1083 C.ar      12 UNK        -0.0824 
     13 C13        30.5177   23.7758    4.4139 C.ar      12 UNK        -0.0762 
     14 C14        30.4428   22.5231    3.7929 C.ar      12 UNK        -0.0782 
     15 C15        29.4914   24.1726    5.4702 C.3       12 UNK         0.0230 
     16 S16        28.3062   25.4276    4.8870 S.3       12 UNK        -0.2608 
     17 C17        29.1339   26.9924    5.3511 C.3       12 UNK        -0.0989 
     18 CA         29.0206   28.1316    4.3033 C.3       5 UNK         0.0716 
     19 N          29.3184   27.7046    2.9317 N.am      5 UNK        -0.4135 
     20 C          30.4533   27.9833    2.2769 C.2       4 UNK         0.5031 
     21 O          31.4322   28.4949    2.8150 O.2       4 UNK        -0.5229 
     22 CA         30.5365   27.6651    0.7683 C.3       4 UNK         0.0329 
     23 CB         31.6708   26.6766    0.4603 C.3       4 UNK        -0.2001 
     24 N          29.2901   27.1710    0.1877 N.am      4 UNK        -0.4303 
     25 C          28.2062   27.9238   -0.0481 C.2       3 UNK         0.5044 
     26 O          28.1453   29.1260    0.2135 O.2       3 UNK        -0.5152 
     27 CA         26.9567   27.2041   -0.5953 C.3       3 UNK         0.0319 
     28 CB         26.9350   27.2610   -2.1297 C.3       3 UNK        -0.2001 
     29 N          26.8439   25.8070   -0.1563 N.am      3 UNK        -0.4354 
     30 C          26.8117   25.4199    1.1276 C.2       2 UNK         0.4964 
     31 O          26.7846   26.2164    2.0628 O.2       2 UNK        -0.5047 
     32 CA         26.8908   23.9157    1.4381 C.3       2 UNK         0.0288 
     33 CB         25.4827   23.3411    1.6564 C.3       2 UNK        -0.2113 
     34 N          27.5985   23.1012    0.4442 N.am      2 UNK        -0.4145 
     35 C          28.8376   23.3140   -0.0296 C.2       1 UNK         0.5006 
     36 O          29.5135   24.3035    0.2471 O.2       1 UNK        -0.5103 
     37 C          27.6732   28.8759    4.3908 C.2       5 UNK         0.5055 
     38 O          27.5469   29.7742    5.2248 O.2       5 UNK        -0.5220 
     39 N          26.6879   28.5117    3.5570 N.am      6 UNK        -0.4450 
     40 CA         25.3690   29.1445    3.5175 C.3       6 UNK         0.0367 
     41 CB         24.3727   28.2194    2.7999 C.3       6 UNK        -0.1929 
     42 C          25.3801   30.5329    2.8580 C.2       6 UNK         0.5070 
     43 O          24.6401   31.4071    3.3111 O.2       6 UNK        -0.5237 
     44 N          26.1897   30.7122    1.8043 N.am      7 UNK        -0.4739 
     45 CA         26.2985   31.9676    1.0581 C.3       7 UNK         0.0276 
     46 CB         26.0510   31.7139   -0.4395 C.3       7 UNK        -0.1927 
     47 C          27.6598   32.6333    1.2918 C.2       7 UNK         0.5013 
     48 O          27.6934   33.8187    1.6265 O.2       7 UNK        -0.5193 
     49 N          28.7544   31.8801    1.1116 N.am      8 UNK        -0.4253 
     50 CA         30.1173   32.3791    1.3214 C.3       8 UNK         0.0242 
     51 CB         31.1160   31.5178    0.5337 C.3       8 UNK        -0.2000 
     52 C          30.4871   32.3923    2.8131 C.2       8 UNK         0.4948 
     53 O          29.9801   31.5767    3.5872 O.2       8 UNK        -0.5275 
     54 N          31.4072   33.2907    3.1842 N.am      9 UNK        -0.4246 
     55 CA         31.9314   33.4532    4.5430 C.3       9 UNK         0.0261 
     56 CB         32.4880   34.8823    4.6925 C.3       9 UNK        -0.1959 
     57 C          32.9715   32.3693    4.8947 C.2       9 UNK         0.5033 
     58 O          34.1393   32.6924    5.1244 O.2       9 UNK        -0.5390 
     59 N          32.5135   31.1103    4.9270 N.am      10 UNK        -0.4215 
     60 CA         33.2619   29.8711    5.1783 C.3       10 UNK         0.0240 
     61 CB         33.9690   29.9089    6.5519 C.3       10 UNK        -0.1982 
     62 C          34.2215   29.4929    4.0304 C.2       10 UNK         0.4970 
     63 O          34.3261   30.2094    3.0311 O.2       10 UNK        -0.4916 
     64 N          34.8675   28.3296    4.1842 N.am      11 UNK        -0.4279 
     65 CA         35.7650   27.7090    3.1988 C.3       11 UNK         0.1003 
     66 C          36.9919   28.5921    2.8375 C.2       11 UNK         0.5709 
     67 N          37.4128   28.5888    1.5796 N.am      11 UNK        -0.7358 
     68 O          37.5929   29.2364    3.6957 O.2       11 UNK        -0.4999 
     69 C69        36.2378   26.2995    3.6559 C.3       12 UNK        -0.0954 
     70 S70        34.9338   25.1794    4.2769 S.3       12 UNK        -0.2268 
     71 C71        33.7376   25.1677    2.9084 C.3       12 UNK         0.0203 
     72 H72        25.5287   20.9366   -2.7707 H         1 UNK         0.0888 
     73 H73        26.6591   20.5421   -4.0685 H         1 UNK         0.0888 
     74 H74        26.7509   19.6866   -2.5279 H         1 UNK         0.0888 
     75 H75        28.4587   20.4011   -1.2537 H         1 UNK         0.3017 
     76 H76        29.8763   22.8156   -1.8067 H         1 UNK         0.0873 
     77 H77        31.3654   22.1498    0.0093 H         1 UNK         0.0745 
     78 H78        31.0489   20.7995   -1.0344 H         1 UNK         0.0745 
     79 H79        32.3450   20.4669    1.8122 H         1 UNK         0.0705 
     80 H80        31.2906   19.9874    3.1137 H         1 UNK         0.0705 
     81 H81        33.2670   22.6632    1.9088 H         1 UNK         0.1334 
     82 H82        31.6748   25.5862    4.5891 H         1 UNK         0.1417 
     83 H83        29.6320   21.8489    4.0338 H         1 UNK         0.1562 
     84 H84        30.0008   24.5287    6.3668 H         1 UNK         0.0748 
     85 H85        28.9234   23.2955    5.7838 H         1 UNK         0.0748 
     86 H86        30.1877   26.8034    5.5426 H         1 UNK         0.0940 
     87 H87        28.7367   27.3150    6.3157 H         1 UNK         0.0940 
     88 H88        29.7527   28.8889    4.5930 H         1 UNK         0.0703 
     89 H89        28.5781   27.2161    2.4443 H         1 UNK         0.3081 
     90 H90        30.7773   28.5942    0.2528 H         1 UNK         0.0719 
     91 H91        31.7153   26.4375   -0.6022 H         1 UNK         0.0809 
     92 H92        32.6375   27.0995    0.7349 H         1 UNK         0.0809 
     93 H93        31.5476   25.7430    1.0083 H         1 UNK         0.0809 
     94 H94        29.2452   26.1671    0.0269 H         1 UNK         0.2990 
     95 H95        26.0826   27.7403   -0.2215 H         1 UNK         0.0690 
     96 H96        26.9997   28.2914   -2.4827 H         1 UNK         0.0788 
     97 H97        26.0121   26.8405   -2.5296 H         1 UNK         0.0788 
     98 H98        27.7711   26.7124   -2.5658 H         1 UNK         0.0788 
     99 H99        26.8791   25.0951   -0.8726 H         1 UNK         0.2993 
    100 H100       27.4477   23.8203    2.3727 H         1 UNK         0.0949 
    101 H101       24.8912   23.3645    0.7402 H         1 UNK         0.0767 
    102 H102       25.5242   22.3092    2.0056 H         1 UNK         0.0767 
    103 H103       24.9405   23.9138    2.4106 H         1 UNK         0.0767 
    104 H104       27.1327   22.2572    0.1462 H         1 UNK         0.3013 
    105 H105       26.8019   27.6862    2.9696 H         1 UNK         0.3121 
    106 H106       25.0235   29.2705    4.5461 H         1 UNK         0.0774 
    107 H107       24.6519   28.0531    1.7592 H         1 UNK         0.0815 
    108 H108       23.3699   28.6485    2.8036 H         1 UNK         0.0815 
    109 H109       24.3114   27.2469    3.2888 H         1 UNK         0.0815 
    110 H110       26.7920   29.9549    1.5010 H         1 UNK         0.2987 
    111 H111       25.5368   32.6756    1.3925 H         1 UNK         0.0949 
    112 H112       26.7910   31.0437   -0.8759 H         1 UNK         0.0806 
    113 H113       25.0664   31.2774   -0.6077 H         1 UNK         0.0806 
    114 H114       26.0907   32.6479   -1.0016 H         1 UNK         0.0806 
    115 H115       28.6464   30.9046    0.8498 H         1 UNK         0.3010 
    116 H116       30.1704   33.3993    0.9340 H         1 UNK         0.0829 
    117 H117       30.7598   31.2937   -0.4721 H         1 UNK         0.0813 
    118 H118       32.0725   32.0320    0.4336 H         1 UNK         0.0813 
    119 H119       31.3204   30.5792    1.0446 H         1 UNK         0.0813 
    120 H120       31.8114   33.8892    2.4780 H         1 UNK         0.3038 
    121 H121       31.1057   33.3482    5.2506 H         1 UNK         0.0769 
    122 H122       33.3137   35.0697    4.0049 H         1 UNK         0.0811 
    123 H123       32.8609   35.0518    5.7036 H         1 UNK         0.0811 
    124 H124       31.7176   35.6304    4.5047 H         1 UNK         0.0811 
    125 H125       31.5537   30.9813    4.6148 H         1 UNK         0.3204 
    126 H126       32.5072   29.0842    5.2184 H         1 UNK         0.0748 
    127 H127       34.3289   28.9215    6.8422 H         1 UNK         0.0771 
    128 H128       34.8308   30.5771    6.5473 H         1 UNK         0.0771 
    129 H129       33.2911   30.2430    7.3375 H         1 UNK         0.0771 
    130 H130       34.7296   27.8020    5.0324 H         1 UNK         0.2980 
    131 H131       35.1765   27.5887    2.2877 H         1 UNK         0.0545 
    132 H132       38.2185   29.1419    1.3327 H         1 UNK         0.3459 
    133 H133       36.9381   28.0527    0.8701 H         1 UNK         0.3459 
    134 H134       36.7478   25.7927    2.8346 H         1 UNK         0.0616 
    135 H135       36.9763   26.3928    4.4547 H         1 UNK         0.0616 
    136 H136       34.2393   24.8861    1.9814 H         1 UNK         0.0634 
    137 H137       33.3511   26.1771    2.7701 H         1 UNK         0.0634 
@<TRIPOS>BOND
     1    1    2 1    
     2    1   72 1    
     3    1   73 1    
     4    1   74 1    
     5    2    3 2    
     6    2    4 am   BACKBONE|DICT|INTERRES
     7    4    5 1    
     8    4   75 1    
     9    5    6 1    
    10    5   35 1    
    11    5   76 1    
    12    6    7 1    
    13    6   77 1    
    14    6   78 1    
    15    7    8 1    
    16    8    9 1    
    17    8   79 1    
    18    8   80 1    
    19    9   10 ar   
    20    9   14 ar   
    21   10   11 ar   
    22   10   81 1    
    23   11   12 ar   
    24   11   71 1    
    25   12   13 ar   
    26   12   82 1    
    27   13   14 ar   
    28   13   15 1    
    29   14   83 1    
    30   15   16 1    
    31   15   84 1    
    32   15   85 1    
    33   16   17 1    
    34   17   18 1    
    35   17   86 1    
    36   17   87 1    
    37   18   19 1    
    38   18   37 1    
    39   18   88 1    
    40   19   20 am   BACKBONE|DICT|INTERRES
    41   19   89 1    
    42   20   21 2    
    43   20   22 1    
    44   22   23 1    
    45   22   24 1    
    46   22   90 1    
    47   23   91 1    
    48   23   92 1    
    49   23   93 1    
    50   24   25 am   BACKBONE|DICT|INTERRES
    51   24   94 1    
    52   25   26 2    
    53   25   27 1    
    54   27   28 1    
    55   27   29 1    
    56   27   95 1    
    57   28   96 1    
    58   28   97 1    
    59   28   98 1    
    60   29   30 am   BACKBONE|DICT|INTERRES
    61   29   99 1    
    62   30   31 2    
    63   30   32 1    
    64   32   33 1    
    65   32   34 1    
    66   32  100 1    
    67   33  101 1    
    68   33  102 1    
    69   33  103 1    
    70   34   35 am   BACKBONE|DICT|INTERRES
    71   34  104 1    
    72   35   36 2    
    73   37   38 2    
    74   37   39 am   BACKBONE|DICT|INTERRES
    75   39   40 1    
    76   39  105 1    
    77   40   41 1    
    78   40   42 1    
    79   40  106 1    
    80   41  107 1    
    81   41  108 1    
    82   41  109 1    
    83   42   43 2    
    84   42   44 am   BACKBONE|DICT|INTERRES
    85   44   45 1    
    86   44  110 1    
    87   45   46 1    
    88   45   47 1    
    89   45  111 1    
    90   46  112 1    
    91   46  113 1    
    92   46  114 1    
    93   47   48 2    
    94   47   49 am   BACKBONE|DICT|INTERRES
    95   49   50 1    
    96   49  115 1    
    97   50   51 1    
    98   50   52 1    
    99   50  116 1    
   100   51  117 1    
   101   51  118 1    
   102   51  119 1    
   103   52   53 2    
   104   52   54 am   BACKBONE|DICT|INTERRES
   105   54   55 1    
   106   54  120 1    
   107   55   56 1    
   108   55   57 1    
   109   55  121 1    
   110   56  122 1    
   111   56  123 1    
   112   56  124 1    
   113   57   58 2    
   114   57   59 am   BACKBONE|DICT|INTERRES
   115   59   60 1    
   116   59  125 1    
   117   60   61 1    
   118   60   62 1    
   119   60  126 1    
   120   61  127 1    
   121   61  128 1    
   122   61  129 1    
   123   62   63 2    
   124   62   64 am   BACKBONE|DICT|INTERRES
   125   64   65 1    
   126   64  130 1    
   127   65   66 1    
   128   65   69 1    
   129   65  131 1    
   130   66   67 am   BACKBONE|DICT|INTERRES
   131   66   68 2    
   132   67  132 1    
   133   67  133 1    
   134   69   70 1    
   135   69  134 1    
   136   69  135 1    
   137   70   71 1    
   138   71  136 1    
   139   71  137 1    
@<TRIPOS>SUBSTRUCTURE
     1 UNK         1 GROUP             0       ****    0 ROOT    
