@<TRIPOS>MOLECULE
3R136
137   139    1
SMALL
USER_CHARGES


@<TRIPOS>ATOM
      1 CA         25.7417   21.4529    4.5741 C.3       0 UNK        -0.1979 
      2 C          26.3036   21.8931    3.2310 C.2       0 UNK         0.4864 
      3 O          25.5563   22.4007    2.3938 O.2       0 UNK        -0.5359 
      4 N          27.6178   21.7176    3.0257 N.am      1 UNK        -0.4318 
      5 CA         28.3514   22.0622    1.7976 C.3       1 UNK         0.0824 
      6 C6         29.8231   21.5761    1.8541 C.3       12 UNK        -0.0944 
      7 S7         30.7958   22.2562    3.2505 S.3       12 UNK        -0.2672 
      8 C8         32.2773   22.9236    2.4223 C.3       12 UNK         0.0333 
      9 C9         32.0609   24.3335    1.8876 C.ar      12 UNK        -0.0807 
     10 C10        32.4620   25.4451    2.6367 C.ar      12 UNK        -0.0894 
     11 C11        32.2847   26.7372    2.1328 C.ar      12 UNK        -0.0804 
     12 C12        31.6848   26.9142    0.8838 C.ar      12 UNK        -0.0824 
     13 C13        31.2746   25.8136    0.1221 C.ar      12 UNK        -0.0762 
     14 C14        31.4820   24.5284    0.6306 C.ar      12 UNK        -0.0782 
     15 C15        30.5742   25.9503   -1.2302 C.3       12 UNK         0.0230 
     16 S16        30.8723   27.5074   -2.1351 S.3       12 UNK        -0.2608 
     17 C17        29.6608   28.6349   -1.3658 C.3       12 UNK        -0.0989 
     18 CA         28.3460   28.7244   -2.1799 C.3       5 UNK         0.0716 
     19 N          27.5842   27.4744   -2.0981 N.am      5 UNK        -0.4135 
     20 C          27.0947   26.7967   -3.1444 C.2       4 UNK         0.5031 
     21 O          27.1752   27.1827   -4.3114 O.2       4 UNK        -0.5229 
     22 CA         26.4132   25.4442   -2.8556 C.3       4 UNK         0.0329 
     23 CB         27.3677   24.2815   -3.1739 C.3       4 UNK        -0.2001 
     24 N          25.9428   25.3130   -1.4742 N.am      4 UNK        -0.4303 
     25 C          24.8488   25.9234   -0.9940 C.2       3 UNK         0.5044 
     26 O          24.0891   26.6018   -1.6857 O.2       3 UNK        -0.5152 
     27 CA         24.5593   25.7867    0.5130 C.3       3 UNK         0.0319 
     28 CB         23.5215   24.6810    0.7606 C.3       3 UNK        -0.2001 
     29 N          25.7427   25.5289    1.3396 N.am      3 UNK        -0.4354 
     30 C          26.8146   26.3317    1.4301 C.2       2 UNK         0.4964 
     31 O          26.9336   27.3812    0.7964 O.2       2 UNK        -0.5047 
     32 CA         27.9646   25.8729    2.3417 C.3       2 UNK         0.0288 
     33 CB         27.7492   26.4168    3.7624 C.3       2 UNK        -0.2113 
     34 N          28.1397   24.4219    2.4268 N.am      2 UNK        -0.4145 
     35 C          28.2480   23.5533    1.4101 C.2       1 UNK         0.5006 
     36 O          28.2199   23.8722    0.2195 O.2       1 UNK        -0.5103 
     37 C          27.5158   29.9244   -1.6893 C.2       5 UNK         0.5055 
     38 O          27.7460   31.0359   -2.1673 O.2       5 UNK        -0.5220 
     39 N          26.6060   29.6934   -0.7288 N.am      6 UNK        -0.4450 
     40 CA         25.8855   30.6957    0.0673 C.3       6 UNK         0.0367 
     41 CB         24.9689   31.5780   -0.8073 C.3       6 UNK        -0.1929 
     42 C          26.8421   31.5038    0.9698 C.2       6 UNK         0.5070 
     43 O          26.6408   32.7009    1.1802 O.2       6 UNK        -0.5237 
     44 N          27.8683   30.8215    1.4896 N.am      7 UNK        -0.4739 
     45 CA         28.8860   31.3300    2.4023 C.3       7 UNK         0.0276 
     46 CB         30.0464   31.9472    1.6025 C.3       7 UNK        -0.1927 
     47 C          29.3668   30.1443    3.2434 C.2       7 UNK         0.5013 
     48 O          29.3479   29.0160    2.7473 O.2       7 UNK        -0.5193 
     49 N          29.7874   30.4103    4.4833 N.am      8 UNK        -0.4253 
     50 CA         30.1954   29.4053    5.4636 C.3       8 UNK         0.0242 
     51 CB         28.9709   28.9973    6.3056 C.3       8 UNK        -0.2000 
     52 C          31.3005   29.9752    6.3613 C.2       8 UNK         0.4948 
     53 O          31.5596   31.1812    6.3262 O.2       8 UNK        -0.5275 
     54 N          31.9140   29.0943    7.1648 N.am      9 UNK        -0.4246 
     55 CA         32.8863   29.3387    8.2450 C.3       9 UNK         0.0261 
     56 CB         32.2670   30.2055    9.3592 C.3       9 UNK        -0.1959 
     57 C          34.2551   29.9029    7.8184 C.2       9 UNK         0.5033 
     58 O          35.2675   29.5046    8.3953 O.2       9 UNK        -0.5390 
     59 N          34.2760   30.8101    6.8361 N.am      10 UNK        -0.4215 
     60 CA         35.4785   31.4630    6.3102 C.3       10 UNK         0.0240 
     61 CB         35.0552   32.6694    5.4559 C.3       10 UNK        -0.1982 
     62 C          36.3939   30.5283    5.4977 C.2       10 UNK         0.4970 
     63 O          37.5872   30.8113    5.3825 O.2       10 UNK        -0.4916 
     64 N          35.8214   29.4606    4.9294 N.am      11 UNK        -0.4279 
     65 CA         36.5138   28.4719    4.0916 C.3       11 UNK         0.1003 
     66 C          37.5200   27.6057    4.8959 C.2       11 UNK         0.5709 
     67 N          38.6634   27.2760    4.3104 N.am      11 UNK        -0.7358 
     68 O          37.2542   27.1942    6.0237 O.2       11 UNK        -0.4999 
     69 C69        35.5107   27.5765    3.3188 C.3       12 UNK        -0.0954 
     70 S70        34.3423   28.5634    2.3228 S.3       12 UNK        -0.2268 
     71 C71        32.7366   27.9562    2.9211 C.3       12 UNK         0.0203 
     72 H72        24.9704   20.6973    4.4272 H         1 UNK         0.0888 
     73 H73        26.5113   21.0310    5.2202 H         1 UNK         0.0888 
     74 H74        25.2935   22.3020    5.0893 H         1 UNK         0.0888 
     75 H75        28.1815   21.3090    3.7584 H         1 UNK         0.3017 
     76 H76        27.8622   21.5136    0.9898 H         1 UNK         0.0873 
     77 H77        30.3248   21.7756    0.9071 H         1 UNK         0.0745 
     78 H78        29.8354   20.4894    1.9519 H         1 UNK         0.0745 
     79 H79        32.5885   22.2552    1.6181 H         1 UNK         0.0705 
     80 H80        33.0989   22.9263    3.1402 H         1 UNK         0.0705 
     81 H81        32.9205   25.3043    3.6058 H         1 UNK         0.1334 
     82 H82        31.5495   27.9206    0.5174 H         1 UNK         0.1417 
     83 H83        31.1735   23.6745    0.0448 H         1 UNK         0.1562 
     84 H84        29.5041   25.8185   -1.0783 H         1 UNK         0.0748 
     85 H85        30.8913   25.1339   -1.8807 H         1 UNK         0.0748 
     86 H86        30.1421   29.6133   -1.2999 H         1 UNK         0.0940 
     87 H87        29.4569   28.3307   -0.3369 H         1 UNK         0.0940 
     88 H88        28.6072   28.9340   -3.2197 H         1 UNK         0.0703 
     89 H89        27.4355   27.1030   -1.1678 H         1 UNK         0.3081 
     90 H90        25.5522   25.3646   -3.5229 H         1 UNK         0.0719 
     91 H91        26.8742   23.3178   -3.0471 H         1 UNK         0.0809 
     92 H92        27.7158   24.3329   -4.2065 H         1 UNK         0.0809 
     93 H93        28.2491   24.2917   -2.5325 H         1 UNK         0.0809 
     94 H94        26.5240   24.7747   -0.8405 H         1 UNK         0.2990 
     95 H95        24.1335   26.7355    0.8457 H         1 UNK         0.0690 
     96 H96        22.6101   24.8633    0.1895 H         1 UNK         0.0788 
     97 H97        23.2392   24.6287    1.8124 H         1 UNK         0.0788 
     98 H98        23.9010   23.7010    0.4675 H         1 UNK         0.0788 
     99 H99        25.7467   24.6589    1.8586 H         1 UNK         0.2993 
    100 H100       28.8866   26.2980    1.9396 H         1 UNK         0.0949 
    101 H101       26.9377   25.9010    4.2771 H         1 UNK         0.0767 
    102 H102       28.6529   26.3169    4.3640 H         1 UNK         0.0767 
    103 H103       27.4914   27.4759    3.7401 H         1 UNK         0.0767 
    104 H104       28.1897   24.0369    3.3584 H         1 UNK         0.3013 
    105 H105       26.5561   28.7508   -0.3489 H         1 UNK         0.3121 
    106 H106       25.2425   30.1312    0.7443 H         1 UNK         0.0774 
    107 H107       25.5386   32.2489   -1.4504 H         1 UNK         0.0815 
    108 H108       24.3234   32.2003   -0.1864 H         1 UNK         0.0815 
    109 H109       24.3220   30.9718   -1.4412 H         1 UNK         0.0815 
    110 H110       27.9337   29.8221    1.3299 H         1 UNK         0.2987 
    111 H111       28.4444   32.0805    3.0619 H         1 UNK         0.0949 
    112 H112       30.5138   31.2145    0.9432 H         1 UNK         0.0806 
    113 H113       29.7053   32.7804    0.9877 H         1 UNK         0.0806 
    114 H114       30.8210   32.3300    2.2682 H         1 UNK         0.0806 
    115 H115       29.8768   31.3680    4.7992 H         1 UNK         0.3010 
    116 H116       30.5914   28.5268    4.9502 H         1 UNK         0.0829 
    117 H117       29.2135   28.1893    6.9966 H         1 UNK         0.0813 
    118 H118       28.5956   29.8326    6.8985 H         1 UNK         0.0813 
    119 H119       28.1524   28.6467    5.6788 H         1 UNK         0.0813 
    120 H120       31.6381   28.1258    7.0746 H         1 UNK         0.3038 
    121 H121       33.0873   28.3565    8.6765 H         1 UNK         0.0769 
    122 H122       32.0347   31.2126    9.0116 H         1 UNK         0.0811 
    123 H123       32.9525   30.3049   10.2020 H         1 UNK         0.0811 
    124 H124       31.3474   29.7625    9.7415 H         1 UNK         0.0811 
    125 H125       33.3740   31.1077    6.4663 H         1 UNK         0.3204 
    126 H126       36.0599   31.8310    7.1583 H         1 UNK         0.0748 
    127 H127       34.4745   33.3844    6.0393 H         1 UNK         0.0771 
    128 H128       35.9261   33.2004    5.0687 H         1 UNK         0.0771 
    129 H129       34.4506   32.3651    4.6003 H         1 UNK         0.0771 
    130 H130       34.8395   29.3003    5.0867 H         1 UNK         0.2980 
    131 H131       37.0848   29.0365    3.3514 H         1 UNK         0.0545 
    132 H132       39.3217   26.7001    4.8117 H         1 UNK         0.3459 
    133 H133       38.8855   27.5967    3.3806 H         1 UNK         0.3459 
    134 H134       36.0421   26.9087    2.6384 H         1 UNK         0.0616 
    135 H135       34.9628   26.9325    4.0087 H         1 UNK         0.0616 
    136 H136       32.7794   27.7426    3.9898 H         1 UNK         0.0634 
    137 H137       32.0074   28.7567    2.8002 H         1 UNK         0.0634 
@<TRIPOS>BOND
     1    1    2 1    
     2    1   72 1    
     3    1   73 1    
     4    1   74 1    
     5    2    3 2    
     6    2    4 am   BACKBONE|DICT|INTERRES
     7    4    5 1    
     8    4   75 1    
     9    5    6 1    
    10    5   35 1    
    11    5   76 1    
    12    6    7 1    
    13    6   77 1    
    14    6   78 1    
    15    7    8 1    
    16    8    9 1    
    17    8   79 1    
    18    8   80 1    
    19    9   10 ar   
    20    9   14 ar   
    21   10   11 ar   
    22   10   81 1    
    23   11   12 ar   
    24   11   71 1    
    25   12   13 ar   
    26   12   82 1    
    27   13   14 ar   
    28   13   15 1    
    29   14   83 1    
    30   15   16 1    
    31   15   84 1    
    32   15   85 1    
    33   16   17 1    
    34   17   18 1    
    35   17   86 1    
    36   17   87 1    
    37   18   19 1    
    38   18   37 1    
    39   18   88 1    
    40   19   20 am   BACKBONE|DICT|INTERRES
    41   19   89 1    
    42   20   21 2    
    43   20   22 1    
    44   22   23 1    
    45   22   24 1    
    46   22   90 1    
    47   23   91 1    
    48   23   92 1    
    49   23   93 1    
    50   24   25 am   BACKBONE|DICT|INTERRES
    51   24   94 1    
    52   25   26 2    
    53   25   27 1    
    54   27   28 1    
    55   27   29 1    
    56   27   95 1    
    57   28   96 1    
    58   28   97 1    
    59   28   98 1    
    60   29   30 am   BACKBONE|DICT|INTERRES
    61   29   99 1    
    62   30   31 2    
    63   30   32 1    
    64   32   33 1    
    65   32   34 1    
    66   32  100 1    
    67   33  101 1    
    68   33  102 1    
    69   33  103 1    
    70   34   35 am   BACKBONE|DICT|INTERRES
    71   34  104 1    
    72   35   36 2    
    73   37   38 2    
    74   37   39 am   BACKBONE|DICT|INTERRES
    75   39   40 1    
    76   39  105 1    
    77   40   41 1    
    78   40   42 1    
    79   40  106 1    
    80   41  107 1    
    81   41  108 1    
    82   41  109 1    
    83   42   43 2    
    84   42   44 am   BACKBONE|DICT|INTERRES
    85   44   45 1    
    86   44  110 1    
    87   45   46 1    
    88   45   47 1    
    89   45  111 1    
    90   46  112 1    
    91   46  113 1    
    92   46  114 1    
    93   47   48 2    
    94   47   49 am   BACKBONE|DICT|INTERRES
    95   49   50 1    
    96   49  115 1    
    97   50   51 1    
    98   50   52 1    
    99   50  116 1    
   100   51  117 1    
   101   51  118 1    
   102   51  119 1    
   103   52   53 2    
   104   52   54 am   BACKBONE|DICT|INTERRES
   105   54   55 1    
   106   54  120 1    
   107   55   56 1    
   108   55   57 1    
   109   55  121 1    
   110   56  122 1    
   111   56  123 1    
   112   56  124 1    
   113   57   58 2    
   114   57   59 am   BACKBONE|DICT|INTERRES
   115   59   60 1    
   116   59  125 1    
   117   60   61 1    
   118   60   62 1    
   119   60  126 1    
   120   61  127 1    
   121   61  128 1    
   122   61  129 1    
   123   62   63 2    
   124   62   64 am   BACKBONE|DICT|INTERRES
   125   64   65 1    
   126   64  130 1    
   127   65   66 1    
   128   65   69 1    
   129   65  131 1    
   130   66   67 am   BACKBONE|DICT|INTERRES
   131   66   68 2    
   132   67  132 1    
   133   67  133 1    
   134   69   70 1    
   135   69  134 1    
   136   69  135 1    
   137   70   71 1    
   138   71  136 1    
   139   71  137 1    
@<TRIPOS>SUBSTRUCTURE
     1 UNK         1 GROUP             0       ****    0 ROOT    
