@<TRIPOS>MOLECULE
3R136
137   139    1
SMALL
USER_CHARGES


@<TRIPOS>ATOM
      1 CA         29.1814   21.4296   -3.4435 C.3       0 UNK        -0.1979 
      2 C          29.4073   20.7649   -2.0870 C.2       0 UNK         0.4864 
      3 O          29.2974   19.5436   -1.9936 O.2       0 UNK        -0.5359 
      4 N          29.7295   21.5028   -1.0130 N.am      1 UNK        -0.4318 
      5 CA         29.8604   22.9649   -0.9316 C.3       1 UNK         0.0824 
      6 C6         30.4650   23.4092    0.4204 C.3       12 UNK        -0.0944 
      7 S7         32.2027   22.8856    0.5985 S.3       12 UNK        -0.2672 
      8 C8         32.1570   21.9240    2.1436 C.3       12 UNK         0.0333 
      9 C9         31.7304   22.7767    3.3304 C.ar      12 UNK        -0.0807 
     10 C10        32.5940   23.7448    3.8500 C.ar      12 UNK        -0.0894 
     11 C11        32.2065   24.5302    4.9397 C.ar      12 UNK        -0.0804 
     12 C12        30.9447   24.3404    5.5125 C.ar      12 UNK        -0.0824 
     13 C13        30.0684   23.3807    4.9941 C.ar      12 UNK        -0.0762 
     14 C14        30.4712   22.5973    3.9092 C.ar      12 UNK        -0.0782 
     15 C15        28.6909   23.1685    5.6086 C.3       12 UNK         0.0230 
     16 S16        27.6451   24.6592    5.5543 S.3       12 UNK        -0.2608 
     17 C17        27.5917   25.0764    3.7740 C.3       12 UNK        -0.0989 
     18 CA         28.2654   26.4398    3.4678 C.3       5 UNK         0.0716 
     19 N          28.4783   26.6465    2.0311 N.am      5 UNK        -0.4135 
     20 C          29.3649   27.5268    1.5362 C.2       4 UNK         0.5031 
     21 O          30.2090   28.0920    2.2286 O.2       4 UNK        -0.5229 
     22 CA         29.2962   27.8772    0.0350 C.3       4 UNK         0.0329 
     23 CB         30.5075   27.3314   -0.7395 C.3       4 UNK        -0.2001 
     24 N          28.0517   27.4589   -0.6195 N.am      4 UNK        -0.4303 
     25 C          26.8690   28.0612   -0.4204 C.2       3 UNK         0.5044 
     26 O          26.7279   29.0478    0.2984 O.2       3 UNK        -0.5152 
     27 CA         25.6181   27.4463   -1.0741 C.3       3 UNK         0.0319 
     28 CB         25.3194   28.1404   -2.4117 C.3       3 UNK        -0.2001 
     29 N          25.6902   25.9984   -1.2841 N.am      3 UNK        -0.4354 
     30 C          25.9148   25.0791   -0.3348 C.2       2 UNK         0.4964 
     31 O          26.0880   25.3531    0.8542 O.2       2 UNK        -0.5047 
     32 CA         26.0396   23.6129   -0.7934 C.3       2 UNK         0.0288 
     33 CB         25.5112   23.3518   -2.2231 C.3       2 UNK        -0.2113 
     34 N          27.4185   23.1226   -0.6722 N.am      2 UNK        -0.4145 
     35 C          28.5261   23.6961   -1.1725 C.2       1 UNK         0.5006 
     36 O          28.5309   24.7470   -1.8158 O.2       1 UNK        -0.5103 
     37 C          27.4640   27.6225    4.0571 C.2       5 UNK         0.5055 
     38 O          27.8228   28.1322    5.1196 O.2       5 UNK        -0.5220 
     39 N          26.3990   28.0415    3.3528 N.am      6 UNK        -0.4450 
     40 CA         25.5426   29.1700    3.7296 C.3       6 UNK         0.0367 
     41 CB         24.2724   29.1767    2.8632 C.3       6 UNK        -0.1929 
     42 C          26.2852   30.5123    3.6395 C.2       6 UNK         0.5070 
     43 O          26.2661   31.2885    4.5958 O.2       6 UNK        -0.5237 
     44 N          26.9808   30.7393    2.5183 N.am      7 UNK        -0.4739 
     45 CA         27.9118   31.8486    2.3103 C.3       7 UNK         0.0276 
     46 CB         28.0481   32.1136    0.7995 C.3       7 UNK        -0.1927 
     47 C          29.2619   31.5353    2.9800 C.2       7 UNK         0.5013 
     48 O          30.2759   31.3960    2.2944 O.2       7 UNK        -0.5193 
     49 N          29.2385   31.4231    4.3161 N.am      8 UNK        -0.4253 
     50 CA         30.3239   30.9544    5.1879 C.3       8 UNK         0.0242 
     51 CB         29.8415   30.9881    6.6466 C.3       8 UNK        -0.2000 
     52 C          31.6714   31.6866    5.0495 C.2       8 UNK         0.4948 
     53 O          32.6947   31.1268    5.4380 O.2       8 UNK        -0.5275 
     54 N          31.6754   32.8889    4.4569 N.am      9 UNK        -0.4246 
     55 CA         32.8776   33.6129    4.0316 C.3       9 UNK         0.0261 
     56 CB         32.4663   34.9879    3.4806 C.3       9 UNK        -0.1959 
     57 C          33.7336   32.8506    2.9965 C.2       9 UNK         0.5033 
     58 O          34.9273   33.1342    2.8884 O.2       9 UNK        -0.5390 
     59 N          33.1299   31.8987    2.2672 N.am      10 UNK        -0.4215 
     60 CA         33.8187   30.9894    1.3499 C.3       10 UNK         0.0240 
     61 CB         32.7836   30.3332    0.4215 C.3       10 UNK        -0.1982 
     62 C          34.6599   29.9102    2.0607 C.2       10 UNK         0.4970 
     63 O          35.5729   29.3719    1.4326 O.2       10 UNK        -0.4916 
     64 N          34.3502   29.5959    3.3271 N.am      11 UNK        -0.4279 
     65 CA         35.0972   28.6277    4.1443 C.3       11 UNK         0.1003 
     66 C          36.4748   29.1862    4.5929 C.2       11 UNK         0.5709 
     67 N          37.4855   28.3332    4.6937 N.am      11 UNK        -0.7358 
     68 O          36.6284   30.3699    4.8885 O.2       11 UNK        -0.4999 
     69 C69        34.2733   28.1448    5.3665 C.3       12 UNK        -0.0954 
     70 S70        32.7713   27.2355    4.8693 S.3       12 UNK        -0.2268 
     71 C71        33.1586   25.5744    5.5000 C.3       12 UNK         0.0203 
     72 H72        29.2633   20.6931   -4.2426 H         1 UNK         0.0888 
     73 H73        28.1840   21.8653   -3.4953 H         1 UNK         0.0888 
     74 H74        29.9167   22.2072   -3.6447 H         1 UNK         0.0888 
     75 H75        29.9094   21.0139   -0.1485 H         1 UNK         0.3017 
     76 H76        30.5441   23.2868   -1.7195 H         1 UNK         0.0873 
     77 H77        29.8631   23.0225    1.2429 H         1 UNK         0.0745 
     78 H78        30.4494   24.4934    0.5330 H         1 UNK         0.0745 
     79 H79        33.1498   21.5135    2.3334 H         1 UNK         0.0705 
     80 H80        31.4921   21.0684    2.0159 H         1 UNK         0.0705 
     81 H81        33.5666   23.8892    3.3992 H         1 UNK         0.1334 
     82 H82        30.6390   24.9482    6.3535 H         1 UNK         0.1417 
     83 H83        29.8011   21.8474    3.5110 H         1 UNK         0.1562 
     84 H84        28.8118   22.8627    6.6486 H         1 UNK         0.0748 
     85 H85        28.1612   22.3545    5.1112 H         1 UNK         0.0748 
     86 H86        26.5495   25.0705    3.4502 H         1 UNK         0.0940 
     87 H87        28.0805   24.2848    3.2046 H         1 UNK         0.0940 
     88 H88        29.2467   26.4344    3.9495 H         1 UNK         0.0703 
     89 H89        27.7979   26.2196    1.4113 H         1 UNK         0.3081 
     90 H90        29.3513   28.9668   -0.0191 H         1 UNK         0.0719 
     91 H91        30.4774   26.2499   -0.8455 H         1 UNK         0.0809 
     92 H92        30.5552   27.7585   -1.7411 H         1 UNK         0.0809 
     93 H93        31.4427   27.5831   -0.2378 H         1 UNK         0.0809 
     94 H94        28.0938   26.6269   -1.2013 H         1 UNK         0.2990 
     95 H95        24.7800   27.6321   -0.3993 H         1 UNK         0.0690 
     96 H96        26.1077   27.9612   -3.1441 H         1 UNK         0.0788 
     97 H97        25.2352   29.2204   -2.2807 H         1 UNK         0.0788 
     98 H98        24.3777   27.7940   -2.8381 H         1 UNK         0.0788 
     99 H99        25.6043   25.6764   -2.2374 H         1 UNK         0.2993 
    100 H100       25.4319   23.0280   -0.1011 H         1 UNK         0.0949 
    101 H101       26.1084   23.8528   -2.9861 H         1 UNK         0.0767 
    102 H102       25.5233   22.2857   -2.4509 H         1 UNK         0.0767 
    103 H103       24.4783   23.6861   -2.3312 H         1 UNK         0.0767 
    104 H104       27.5310   22.2693   -0.1427 H         1 UNK         0.3013 
    105 H105       26.1822   27.5798    2.4813 H         1 UNK         0.3121 
    106 H106       25.2411   29.0275    4.7697 H         1 UNK         0.0774 
    107 H107       23.6106   29.9941    3.1528 H         1 UNK         0.0815 
    108 H108       24.4993   29.3037    1.8044 H         1 UNK         0.0815 
    109 H109       23.7096   28.2501    2.9769 H         1 UNK         0.0815 
    110 H110       26.9311   30.0513    1.7672 H         1 UNK         0.2987 
    111 H111       27.5093   32.7516    2.7747 H         1 UNK         0.0949 
    112 H112       28.4564   31.2505    0.2728 H         1 UNK         0.0806 
    113 H113       27.0840   32.3520    0.3504 H         1 UNK         0.0806 
    114 H114       28.7137   32.9564    0.6094 H         1 UNK         0.0806 
    115 H115       28.3307   31.5279    4.7571 H         1 UNK         0.3010 
    116 H116       30.5092   29.9124    4.9161 H         1 UNK         0.0829 
    117 H117       30.6106   30.6109    7.3224 H         1 UNK         0.0813 
    118 H118       29.5923   32.0008    6.9657 H         1 UNK         0.0813 
    119 H119       28.9587   30.3629    6.7849 H         1 UNK         0.0813 
    120 H120       30.7881   33.2706    4.1641 H         1 UNK         0.3038 
    121 H121       33.4997   33.7666    4.9158 H         1 UNK         0.0769 
    122 H122       33.3419   35.5659    3.1815 H         1 UNK         0.0811 
    123 H123       31.9345   35.5745    4.2301 H         1 UNK         0.0811 
    124 H124       31.8226   34.8952    2.6048 H         1 UNK         0.0811 
    125 H125       32.1289   31.7455    2.3841 H         1 UNK         0.3204 
    126 H126       34.4996   31.5807    0.7341 H         1 UNK         0.0748 
    127 H127       33.2661   29.6807   -0.3073 H         1 UNK         0.0771 
    128 H128       32.0721   29.7265    0.9833 H         1 UNK         0.0771 
    129 H129       32.2170   31.0802   -0.1349 H         1 UNK         0.0771 
    130 H130       33.6282   30.1138    3.8128 H         1 UNK         0.2980 
    131 H131       35.2901   27.7553    3.5161 H         1 UNK         0.0545 
    132 H132       37.3713   27.3580    4.4651 H         1 UNK         0.3459 
    133 H133       38.3841   28.6737    4.9981 H         1 UNK         0.3459 
    134 H134       34.8810   27.5003    6.0043 H         1 UNK         0.0616 
    135 H135       33.9812   28.9851    5.9962 H         1 UNK         0.0616 
    136 H136       33.1077   25.5814    6.5898 H         1 UNK         0.0634 
    137 H137       34.1866   25.3177    5.2387 H         1 UNK         0.0634 
@<TRIPOS>BOND
     1    1    2 1    
     2    1   72 1    
     3    1   73 1    
     4    1   74 1    
     5    2    3 2    
     6    2    4 am   BACKBONE|DICT|INTERRES
     7    4    5 1    
     8    4   75 1    
     9    5    6 1    
    10    5   35 1    
    11    5   76 1    
    12    6    7 1    
    13    6   77 1    
    14    6   78 1    
    15    7    8 1    
    16    8    9 1    
    17    8   79 1    
    18    8   80 1    
    19    9   10 ar   
    20    9   14 ar   
    21   10   11 ar   
    22   10   81 1    
    23   11   12 ar   
    24   11   71 1    
    25   12   13 ar   
    26   12   82 1    
    27   13   14 ar   
    28   13   15 1    
    29   14   83 1    
    30   15   16 1    
    31   15   84 1    
    32   15   85 1    
    33   16   17 1    
    34   17   18 1    
    35   17   86 1    
    36   17   87 1    
    37   18   19 1    
    38   18   37 1    
    39   18   88 1    
    40   19   20 am   BACKBONE|DICT|INTERRES
    41   19   89 1    
    42   20   21 2    
    43   20   22 1    
    44   22   23 1    
    45   22   24 1    
    46   22   90 1    
    47   23   91 1    
    48   23   92 1    
    49   23   93 1    
    50   24   25 am   BACKBONE|DICT|INTERRES
    51   24   94 1    
    52   25   26 2    
    53   25   27 1    
    54   27   28 1    
    55   27   29 1    
    56   27   95 1    
    57   28   96 1    
    58   28   97 1    
    59   28   98 1    
    60   29   30 am   BACKBONE|DICT|INTERRES
    61   29   99 1    
    62   30   31 2    
    63   30   32 1    
    64   32   33 1    
    65   32   34 1    
    66   32  100 1    
    67   33  101 1    
    68   33  102 1    
    69   33  103 1    
    70   34   35 am   BACKBONE|DICT|INTERRES
    71   34  104 1    
    72   35   36 2    
    73   37   38 2    
    74   37   39 am   BACKBONE|DICT|INTERRES
    75   39   40 1    
    76   39  105 1    
    77   40   41 1    
    78   40   42 1    
    79   40  106 1    
    80   41  107 1    
    81   41  108 1    
    82   41  109 1    
    83   42   43 2    
    84   42   44 am   BACKBONE|DICT|INTERRES
    85   44   45 1    
    86   44  110 1    
    87   45   46 1    
    88   45   47 1    
    89   45  111 1    
    90   46  112 1    
    91   46  113 1    
    92   46  114 1    
    93   47   48 2    
    94   47   49 am   BACKBONE|DICT|INTERRES
    95   49   50 1    
    96   49  115 1    
    97   50   51 1    
    98   50   52 1    
    99   50  116 1    
   100   51  117 1    
   101   51  118 1    
   102   51  119 1    
   103   52   53 2    
   104   52   54 am   BACKBONE|DICT|INTERRES
   105   54   55 1    
   106   54  120 1    
   107   55   56 1    
   108   55   57 1    
   109   55  121 1    
   110   56  122 1    
   111   56  123 1    
   112   56  124 1    
   113   57   58 2    
   114   57   59 am   BACKBONE|DICT|INTERRES
   115   59   60 1    
   116   59  125 1    
   117   60   61 1    
   118   60   62 1    
   119   60  126 1    
   120   61  127 1    
   121   61  128 1    
   122   61  129 1    
   123   62   63 2    
   124   62   64 am   BACKBONE|DICT|INTERRES
   125   64   65 1    
   126   64  130 1    
   127   65   66 1    
   128   65   69 1    
   129   65  131 1    
   130   66   67 am   BACKBONE|DICT|INTERRES
   131   66   68 2    
   132   67  132 1    
   133   67  133 1    
   134   69   70 1    
   135   69  134 1    
   136   69  135 1    
   137   70   71 1    
   138   71  136 1    
   139   71  137 1    
@<TRIPOS>SUBSTRUCTURE
     1 UNK         1 GROUP             0       ****    0 ROOT    
