@<TRIPOS>MOLECULE
3R136
137   139    1
SMALL
USER_CHARGES


@<TRIPOS>ATOM
      1 CA         24.4046   22.9994    3.6213 C.3       0 UNK        -0.1979 
      2 C          25.4788   23.2933    2.5853 C.2       0 UNK         0.4864 
      3 O          25.2838   24.1720    1.7446 O.2       0 UNK        -0.5359 
      4 N          26.6094   22.5713    2.6505 N.am      1 UNK        -0.4318 
      5 CA         27.7688   22.6881    1.7548 C.3       1 UNK         0.0824 
      6 C6         28.8760   21.6595    2.1281 C.3       12 UNK        -0.0944 
      7 S7         30.4241   21.7826    1.1553 S.3       12 UNK        -0.2672 
      8 C8         31.5561   22.5132    2.3924 C.3       12 UNK         0.0333 
      9 C9         32.6687   23.3720    1.7949 C.ar      12 UNK        -0.0807 
     10 C10        33.9466   23.3359    2.3575 C.ar      12 UNK        -0.0894 
     11 C11        34.9567   24.1765    1.8834 C.ar      12 UNK        -0.0804 
     12 C12        34.6870   25.0513    0.8270 C.ar      12 UNK        -0.0824 
     13 C13        33.4098   25.1215    0.2597 C.ar      12 UNK        -0.0762 
     14 C14        32.4120   24.2655    0.7493 C.ar      12 UNK        -0.0782 
     15 C15        33.1398   26.1873   -0.8107 C.3       12 UNK         0.0230 
     16 S16        31.9636   25.7234   -2.1293 S.3       12 UNK        -0.2608 
     17 C17        30.3633   25.9422   -1.2865 C.3       12 UNK        -0.0989 
     18 CA         29.4056   26.9996   -1.8796 C.3       5 UNK         0.0716 
     19 N          28.0760   26.8140   -1.3000 N.am      5 UNK        -0.4135 
     20 C          26.9234   27.2643   -1.8062 C.2       4 UNK         0.5031 
     21 O          26.8401   28.0013   -2.7890 O.2       4 UNK        -0.5229 
     22 CA         25.6416   26.7679   -1.1134 C.3       4 UNK         0.0329 
     23 CB         25.3098   25.3324   -1.5533 C.3       4 UNK        -0.2001 
     24 N          25.7465   26.8139    0.3464 N.am      4 UNK        -0.4303 
     25 C          25.6200   27.9382    1.0632 C.2       3 UNK         0.5044 
     26 O          25.3166   29.0250    0.5733 O.2       3 UNK        -0.5152 
     27 CA         25.8942   27.8509    2.5757 C.3       3 UNK         0.0319 
     28 CB         24.6291   27.4221    3.3353 C.3       3 UNK        -0.2001 
     29 N          26.9998   26.9525    2.9157 N.am      3 UNK        -0.4354 
     30 C          28.2768   27.1420    2.5522 C.2       2 UNK         0.4964 
     31 O          28.6620   28.1022    1.8850 O.2       2 UNK        -0.5047 
     32 CA         29.2778   26.0341    2.9282 C.3       2 UNK         0.0288 
     33 CB         29.8479   26.2388    4.3390 C.3       2 UNK        -0.2113 
     34 N          28.7080   24.6884    2.8277 N.am      2 UNK        -0.4145 
     35 C          28.2879   24.1376    1.6803 C.2       1 UNK         0.5006 
     36 O          28.2645   24.7357    0.6050 O.2       1 UNK        -0.5103 
     37 C          29.9400   28.4347   -1.6991 C.2       5 UNK         0.5055 
     38 O          30.3278   29.0627   -2.6861 O.2       5 UNK        -0.5220 
     39 N          29.9824   28.9133   -0.4484 N.am      6 UNK        -0.4450 
     40 CA         30.6217   30.1734   -0.0596 C.3       6 UNK         0.0367 
     41 CB         31.5644   29.8979    1.1239 C.3       6 UNK        -0.1929 
     42 C          29.6128   31.2608    0.3355 C.2       6 UNK         0.5070 
     43 O          29.9730   32.4376    0.3008 O.2       6 UNK        -0.5237 
     44 N          28.3931   30.8599    0.7272 N.am      7 UNK        -0.4739 
     45 CA         27.3319   31.7028    1.2992 C.3       7 UNK         0.0276 
     46 CB         26.8302   32.7541    0.2859 C.3       7 UNK        -0.1927 
     47 C          27.7234   32.3026    2.6646 C.2       7 UNK         0.5013 
     48 O          27.3334   33.4265    2.9866 O.2       7 UNK        -0.5193 
     49 N          28.4790   31.5260    3.4473 N.am      8 UNK        -0.4253 
     50 CA         28.9475   31.8329    4.7931 C.3       8 UNK         0.0242 
     51 CB         30.2155   32.7035    4.7189 C.3       8 UNK        -0.2000 
     52 C          29.2399   30.5004    5.4880 C.2       8 UNK         0.4948 
     53 O          29.4257   29.4915    4.8066 O.2       8 UNK        -0.5275 
     54 N          29.3186   30.5071    6.8229 N.am      9 UNK        -0.4246 
     55 CA         29.6197   29.3276    7.6438 C.3       9 UNK         0.0261 
     56 CB         28.9931   29.5199    9.0384 C.3       9 UNK        -0.1959 
     57 C          31.1331   29.0248    7.7078 C.2       9 UNK         0.5033 
     58 O          31.6771   28.8428    8.7992 O.2       9 UNK        -0.5390 
     59 N          31.7922   28.9914    6.5451 N.am      10 UNK        -0.4215 
     60 CA         33.2244   28.7655    6.3633 C.3       10 UNK         0.0240 
     61 CB         34.0199   30.0117    6.8043 C.3       10 UNK        -0.1982 
     62 C          33.4918   28.4508    4.8866 C.2       10 UNK         0.4970 
     63 O          32.6285   28.7048    4.0446 O.2       10 UNK        -0.4916 
     64 N          34.6887   27.9272    4.5977 N.am      11 UNK        -0.4279 
     65 CA         35.1880   27.6976    3.2332 C.3       11 UNK         0.1003 
     66 C          35.3568   29.0169    2.4268 C.2       11 UNK         0.5709 
     67 N          35.1872   28.9677    1.1124 N.am      11 UNK        -0.7358 
     68 O          35.6894   30.0678    2.9728 O.2       11 UNK        -0.4999 
     69 C69        36.5202   26.9012    3.2362 C.3       12 UNK        -0.0954 
     70 S70        36.3801   25.2494    3.9999 S.3       12 UNK        -0.2268 
     71 C71        36.3284   24.1585    2.5406 C.3       12 UNK         0.0203 
     72 H72        24.1978   23.8926    4.2101 H         1 UNK         0.0888 
     73 H73        23.4821   22.6966    3.1268 H         1 UNK         0.0888 
     74 H74        24.7009   22.2033    4.3040 H         1 UNK         0.0888 
     75 H75        26.6875   21.8651    3.3685 H         1 UNK         0.3017 
     76 H76        27.4145   22.4378    0.7524 H         1 UNK         0.0873 
     77 H77        28.4864   20.6502    1.9862 H         1 UNK         0.0745 
     78 H78        29.1157   21.7270    3.1907 H         1 UNK         0.0745 
     79 H79        31.9757   21.7013    2.9886 H         1 UNK         0.0705 
     80 H80        30.9975   23.1430    3.0842 H         1 UNK         0.0705 
     81 H81        34.1519   22.6724    3.1869 H         1 UNK         0.1334 
     82 H82        35.4708   25.7050    0.4701 H         1 UNK         0.1417 
     83 H83        31.4166   24.2870    0.3422 H         1 UNK         0.1562 
     84 H84        34.0766   26.4521   -1.3034 H         1 UNK         0.0748 
     85 H85        32.7885   27.0971   -0.3232 H         1 UNK         0.0748 
     86 H86        30.5183   26.1542   -0.2281 H         1 UNK         0.0940 
     87 H87        29.8847   24.9628   -1.3342 H         1 UNK         0.0940 
     88 H88        29.3212   26.8119   -2.9523 H         1 UNK         0.0703 
     89 H89        28.0296   26.1712   -0.5117 H         1 UNK         0.3081 
     90 H90        24.8189   27.4134   -1.4286 H         1 UNK         0.0719 
     91 H91        24.3642   24.9981   -1.1259 H         1 UNK         0.0809 
     92 H92        25.2183   25.2661   -2.6382 H         1 UNK         0.0809 
     93 H93        26.0806   24.6248   -1.2444 H         1 UNK         0.0809 
     94 H94        25.9325   25.9386    0.8272 H         1 UNK         0.2990 
     95 H95        26.1708   28.8508    2.9172 H         1 UNK         0.0690 
     96 H96        23.8011   28.1007    3.1254 H         1 UNK         0.0788 
     97 H97        24.7897   27.4327    4.4134 H         1 UNK         0.0788 
     98 H98        24.3070   26.4194    3.0520 H         1 UNK         0.0788 
     99 H99        26.7657   26.1141    3.4256 H         1 UNK         0.2993 
    100 H100       30.1092   26.0925    2.2225 H         1 UNK         0.0949 
    101 H101       29.0636   26.2827    5.0956 H         1 UNK         0.0767 
    102 H102       30.5402   25.4419    4.6110 H         1 UNK         0.0767 
    103 H103       30.4077   27.1716    4.3909 H         1 UNK         0.0767 
    104 H104       28.6577   24.1453    3.6771 H         1 UNK         0.3013 
    105 H105       29.5742   28.3754    0.3131 H         1 UNK         0.3121 
    106 H106       31.2210   30.5669   -0.8833 H         1 UNK         0.0774 
    107 H107       31.0212   29.5351    1.9980 H         1 UNK         0.0815 
    108 H108       32.0932   30.8028    1.4260 H         1 UNK         0.0815 
    109 H109       32.3185   29.1545    0.8708 H         1 UNK         0.0815 
    110 H110       28.2252   29.8615    0.7703 H         1 UNK         0.2987 
    111 H111       26.4946   31.0411    1.5135 H         1 UNK         0.0949 
    112 H112       27.5812   33.5174    0.0819 H         1 UNK         0.0806 
    113 H113       26.5544   32.2898   -0.6609 H         1 UNK         0.0806 
    114 H114       25.9447   33.2664    0.6638 H         1 UNK         0.0806 
    115 H115       28.7259   30.5916    3.1377 H         1 UNK         0.3010 
    116 H116       28.1615   32.3543    5.3435 H         1 UNK         0.0829 
    117 H117       30.0193   33.6488    4.2125 H         1 UNK         0.0813 
    118 H118       30.5903   32.9423    5.7148 H         1 UNK         0.0813 
    119 H119       31.0175   32.1970    4.1795 H         1 UNK         0.0813 
    120 H120       29.2001   31.3808    7.3162 H         1 UNK         0.3038 
    121 H121       29.1450   28.4538    7.1914 H         1 UNK         0.0769 
    122 H122       29.4331   30.3673    9.5655 H         1 UNK         0.0811 
    123 H123       29.1414   28.6358    9.6601 H         1 UNK         0.0811 
    124 H124       27.9179   29.6868    8.9711 H         1 UNK         0.0811 
    125 H125       31.2688   29.1028    5.6781 H         1 UNK         0.3204 
    126 H126       33.5241   27.9018    6.9605 H         1 UNK         0.0748 
    127 H127       35.0913   29.8721    6.6556 H         1 UNK         0.0771 
    128 H128       33.7246   30.8950    6.2364 H         1 UNK         0.0771 
    129 H129       33.8718   30.2303    7.8618 H         1 UNK         0.0771 
    130 H130       35.3476   27.7565    5.3421 H         1 UNK         0.2980 
    131 H131       34.4312   27.0997    2.7228 H         1 UNK         0.0545 
    132 H132       35.3167   29.8106    0.5755 H         1 UNK         0.3459 
    133 H133       34.9416   28.1106    0.6480 H         1 UNK         0.3459 
    134 H134       36.9035   26.7863    2.2210 H         1 UNK         0.0616 
    135 H135       37.2877   27.4551    3.7800 H         1 UNK         0.0616 
    136 H136       36.5685   23.1423    2.8568 H         1 UNK         0.0634 
    137 H137       37.1051   24.4447    1.8299 H         1 UNK         0.0634 
@<TRIPOS>BOND
     1    1    2 1    
     2    1   72 1    
     3    1   73 1    
     4    1   74 1    
     5    2    3 2    
     6    2    4 am   BACKBONE|DICT|INTERRES
     7    4    5 1    
     8    4   75 1    
     9    5    6 1    
    10    5   35 1    
    11    5   76 1    
    12    6    7 1    
    13    6   77 1    
    14    6   78 1    
    15    7    8 1    
    16    8    9 1    
    17    8   79 1    
    18    8   80 1    
    19    9   10 ar   
    20    9   14 ar   
    21   10   11 ar   
    22   10   81 1    
    23   11   12 ar   
    24   11   71 1    
    25   12   13 ar   
    26   12   82 1    
    27   13   14 ar   
    28   13   15 1    
    29   14   83 1    
    30   15   16 1    
    31   15   84 1    
    32   15   85 1    
    33   16   17 1    
    34   17   18 1    
    35   17   86 1    
    36   17   87 1    
    37   18   19 1    
    38   18   37 1    
    39   18   88 1    
    40   19   20 am   BACKBONE|DICT|INTERRES
    41   19   89 1    
    42   20   21 2    
    43   20   22 1    
    44   22   23 1    
    45   22   24 1    
    46   22   90 1    
    47   23   91 1    
    48   23   92 1    
    49   23   93 1    
    50   24   25 am   BACKBONE|DICT|INTERRES
    51   24   94 1    
    52   25   26 2    
    53   25   27 1    
    54   27   28 1    
    55   27   29 1    
    56   27   95 1    
    57   28   96 1    
    58   28   97 1    
    59   28   98 1    
    60   29   30 am   BACKBONE|DICT|INTERRES
    61   29   99 1    
    62   30   31 2    
    63   30   32 1    
    64   32   33 1    
    65   32   34 1    
    66   32  100 1    
    67   33  101 1    
    68   33  102 1    
    69   33  103 1    
    70   34   35 am   BACKBONE|DICT|INTERRES
    71   34  104 1    
    72   35   36 2    
    73   37   38 2    
    74   37   39 am   BACKBONE|DICT|INTERRES
    75   39   40 1    
    76   39  105 1    
    77   40   41 1    
    78   40   42 1    
    79   40  106 1    
    80   41  107 1    
    81   41  108 1    
    82   41  109 1    
    83   42   43 2    
    84   42   44 am   BACKBONE|DICT|INTERRES
    85   44   45 1    
    86   44  110 1    
    87   45   46 1    
    88   45   47 1    
    89   45  111 1    
    90   46  112 1    
    91   46  113 1    
    92   46  114 1    
    93   47   48 2    
    94   47   49 am   BACKBONE|DICT|INTERRES
    95   49   50 1    
    96   49  115 1    
    97   50   51 1    
    98   50   52 1    
    99   50  116 1    
   100   51  117 1    
   101   51  118 1    
   102   51  119 1    
   103   52   53 2    
   104   52   54 am   BACKBONE|DICT|INTERRES
   105   54   55 1    
   106   54  120 1    
   107   55   56 1    
   108   55   57 1    
   109   55  121 1    
   110   56  122 1    
   111   56  123 1    
   112   56  124 1    
   113   57   58 2    
   114   57   59 am   BACKBONE|DICT|INTERRES
   115   59   60 1    
   116   59  125 1    
   117   60   61 1    
   118   60   62 1    
   119   60  126 1    
   120   61  127 1    
   121   61  128 1    
   122   61  129 1    
   123   62   63 2    
   124   62   64 am   BACKBONE|DICT|INTERRES
   125   64   65 1    
   126   64  130 1    
   127   65   66 1    
   128   65   69 1    
   129   65  131 1    
   130   66   67 am   BACKBONE|DICT|INTERRES
   131   66   68 2    
   132   67  132 1    
   133   67  133 1    
   134   69   70 1    
   135   69  134 1    
   136   69  135 1    
   137   70   71 1    
   138   71  136 1    
   139   71  137 1    
@<TRIPOS>SUBSTRUCTURE
     1 UNK         1 GROUP             0       ****    0 ROOT    
