@<TRIPOS>MOLECULE
3R136
137   139    1
SMALL
USER_CHARGES


@<TRIPOS>ATOM
      1 CA         25.0057   25.4692    2.5969 C.3       0 UNK        -0.1979 
      2 C          25.5420   24.0577    2.4198 C.2       0 UNK         0.4864 
      3 O          24.7493   23.1141    2.4414 O.2       0 UNK        -0.5359 
      4 N          26.8602   23.8904    2.2195 N.am      1 UNK        -0.4318 
      5 CA         27.4919   22.5898    1.9567 C.3       1 UNK         0.0824 
      6 C6         29.0384   22.6104    2.1348 C.3       12 UNK        -0.0944 
      7 S7         30.0138   23.4533    0.8380 S.3       12 UNK        -0.2672 
      8 C8         31.5874   23.7808    1.6911 C.3       12 UNK         0.0333 
      9 C9         31.6624   25.2226    2.1660 C.ar      12 UNK        -0.0807 
     10 C10        31.5966   25.5358    3.5262 C.ar      12 UNK        -0.0894 
     11 C11        31.6661   26.8661    3.9533 C.ar      12 UNK        -0.0804 
     12 C12        31.7732   27.8864    2.9976 C.ar      12 UNK        -0.0824 
     13 C13        31.8433   27.5839    1.6350 C.ar      12 UNK        -0.0762 
     14 C14        31.8044   26.2486    1.2292 C.ar      12 UNK        -0.0782 
     15 C15        31.9899   28.6924    0.6019 C.3       12 UNK         0.0230 
     16 S16        30.4032   29.4905    0.1850 S.3       12 UNK        -0.2608 
     17 C17        29.4982   28.1518   -0.6786 C.3       12 UNK        -0.0989 
     18 CA         28.0969   27.7974   -0.0981 C.3       5 UNK         0.0716 
     19 N          27.5084   26.6512   -0.7924 N.am      5 UNK        -0.4135 
     20 C          26.9983   26.6918   -2.0294 C.2       4 UNK         0.5031 
     21 O          26.8917   27.7264   -2.6897 O.2       4 UNK        -0.5229 
     22 CA         26.5549   25.3599   -2.6543 C.3       4 UNK         0.0329 
     23 CB         27.7760   24.5031   -3.0297 C.3       4 UNK        -0.2001 
     24 N          25.6448   24.5952   -1.7967 N.am      4 UNK        -0.4303 
     25 C          24.3287   24.8449   -1.6942 C.2       3 UNK         0.5044 
     26 O          23.7845   25.7929   -2.2630 O.2       3 UNK        -0.5152 
     27 CA         23.4560   23.9118   -0.8211 C.3       3 UNK         0.0319 
     28 CB         22.0707   23.6466   -1.4492 C.3       3 UNK        -0.2001 
     29 N          24.0999   22.6552   -0.4186 N.am      3 UNK        -0.4354 
     30 C          24.4991   21.6364   -1.1993 C.2       2 UNK         0.4964 
     31 O          24.2724   21.5691   -2.4082 O.2       2 UNK        -0.5047 
     32 CA         25.3350   20.5285   -0.5093 C.3       2 UNK         0.0288 
     33 CB         26.2324   19.7591   -1.5025 C.3       2 UNK        -0.2113 
     34 N          26.1350   21.0209    0.6267 N.am      2 UNK        -0.4145 
     35 C          27.0000   22.0483    0.5954 C.2       1 UNK         0.5006 
     36 O          27.2899   22.6478   -0.4404 O.2       1 UNK        -0.5103 
     37 C          28.1244   27.4844    1.4077 C.2       5 UNK         0.5055 
     38 O          28.2435   26.3178    1.7883 O.2       5 UNK        -0.5220 
     39 N          28.0144   28.5352    2.2280 N.am      6 UNK        -0.4450 
     40 CA         28.2197   28.5137    3.6763 C.3       6 UNK         0.0367 
     41 CB         26.9721   27.9807    4.4064 C.3       6 UNK        -0.1929 
     42 C          28.6791   29.8952    4.1796 C.2       6 UNK         0.5070 
     43 O          28.3477   30.2807    5.3014 O.2       6 UNK        -0.5237 
     44 N          29.4105   30.6405    3.3371 N.am      7 UNK        -0.4739 
     45 CA         29.9494   31.9625    3.6602 C.3       7 UNK         0.0276 
     46 CB         30.3222   32.6915    2.3584 C.3       7 UNK        -0.1927 
     47 C          31.1658   31.8219    4.5861 C.2       7 UNK         0.5013 
     48 O          32.2004   31.3286    4.1360 O.2       7 UNK        -0.5193 
     49 N          31.0159   32.2526    5.8475 N.am      8 UNK        -0.4253 
     50 CA         31.9553   32.0581    6.9633 C.3       8 UNK         0.0242 
     51 CB         31.4424   32.8256    8.1929 C.3       8 UNK        -0.2000 
     52 C          33.4245   32.4255    6.6850 C.2       8 UNK         0.4948 
     53 O          34.3234   31.7564    7.1954 O.2       8 UNK        -0.5275 
     54 N          33.6441   33.4679    5.8745 N.am      9 UNK        -0.4246 
     55 CA         34.9695   33.9309    5.4591 C.3       9 UNK         0.0261 
     56 CB         34.8491   35.3774    4.9500 C.3       9 UNK        -0.1959 
     57 C          35.6397   33.0433    4.3915 C.2       9 UNK         0.5033 
     58 O          36.8450   33.1883    4.1805 O.2       9 UNK        -0.5390 
     59 N          34.8703   32.1751    3.7202 N.am      10 UNK        -0.4215 
     60 CA         35.3047   31.3829    2.5679 C.3       10 UNK         0.0240 
     61 CB         34.4204   31.7579    1.3646 C.3       10 UNK        -0.1982 
     62 C          35.2896   29.8661    2.8322 C.2       10 UNK         0.4970 
     63 O          35.5230   29.1052    1.8919 O.2       10 UNK        -0.4916 
     64 N          35.0392   29.4377    4.0785 N.am      11 UNK        -0.4279 
     65 CA         35.0387   28.0168    4.4785 C.3       11 UNK         0.1003 
     66 C          36.4366   27.3298    4.4627 C.2       11 UNK         0.5709 
     67 N          37.5414   28.0652    4.4099 N.am      11 UNK        -0.7358 
     68 O          36.5194   26.1043    4.4970 O.2       11 UNK        -0.4999 
     69 C69        34.3409   27.7764    5.8451 C.3       12 UNK        -0.0954 
     70 S70        32.6862   28.5258    5.9840 S.3       12 UNK        -0.2268 
     71 C71        31.5862   27.1769    5.4463 C.3       12 UNK         0.0203 
     72 H72        25.6588   26.2143    2.1504 H         1 UNK         0.0888 
     73 H73        24.8861   25.6924    3.6562 H         1 UNK         0.0888 
     74 H74        24.0287   25.5655    2.1253 H         1 UNK         0.0888 
     75 H75        27.4725   24.7040    2.1556 H         1 UNK         0.3017 
     76 H76        27.1186   21.9131    2.7288 H         1 UNK         0.0873 
     77 H77        29.4056   21.5847    2.1969 H         1 UNK         0.0745 
     78 H78        29.2800   23.0659    3.0966 H         1 UNK         0.0745 
     79 H79        31.7226   23.0825    2.5184 H         1 UNK         0.0705 
     80 H80        32.4075   23.5918    0.9969 H         1 UNK         0.0705 
     81 H81        31.4901   24.7419    4.2526 H         1 UNK         0.1334 
     82 H82        31.8154   28.9190    3.3134 H         1 UNK         0.1417 
     83 H83        31.8674   26.0002    0.1788 H         1 UNK         0.1562 
     84 H84        32.4530   28.3112   -0.3096 H         1 UNK         0.0748 
     85 H85        32.6720   29.4480    0.9889 H         1 UNK         0.0748 
     86 H86        30.1167   27.2558   -0.7156 H         1 UNK         0.0940 
     87 H87        29.3898   28.4639   -1.7182 H         1 UNK         0.0940 
     88 H88        27.4333   28.6532   -0.2409 H         1 UNK         0.0703 
     89 H89        27.5672   25.7747   -0.2893 H         1 UNK         0.3081 
     90 H90        26.0297   25.5914   -3.5839 H         1 UNK         0.0719 
     91 H91        28.3985   24.2733   -2.1642 H         1 UNK         0.0809 
     92 H92        27.4739   23.5587   -3.4830 H         1 UNK         0.0809 
     93 H93        28.4073   25.0229   -3.7514 H         1 UNK         0.0809 
     94 H94        26.0516   23.8073   -1.2980 H         1 UNK         0.2990 
     95 H95        23.2845   24.4588    0.1059 H         1 UNK         0.0690 
     96 H96        21.4640   23.0004   -0.8149 H         1 UNK         0.0788 
     97 H97        22.1523   23.1756   -2.4291 H         1 UNK         0.0788 
     98 H98        21.5162   24.5761   -1.5838 H         1 UNK         0.0788 
     99 H99        24.3381   22.6060    0.5688 H         1 UNK         0.2993 
    100 H100       24.6129   19.8220   -0.0972 H         1 UNK         0.0949 
    101 H101       25.6368   19.2783   -2.2796 H         1 UNK         0.0767 
    102 H102       26.9433   20.4203   -1.9996 H         1 UNK         0.0767 
    103 H103       26.7988   18.9752   -0.9998 H         1 UNK         0.0767 
    104 H104       25.8984   20.6264    1.5273 H         1 UNK         0.3013 
    105 H105       27.8879   29.4535    1.8239 H         1 UNK         0.3121 
    106 H106       29.0410   27.8305    3.8910 H         1 UNK         0.0774 
    107 H107       26.8140   26.9292    4.1776 H         1 UNK         0.0815 
    108 H108       26.0742   28.5342    4.1310 H         1 UNK         0.0815 
    109 H109       27.0827   28.0459    5.4894 H         1 UNK         0.0815 
    110 H110       29.7162   30.2356    2.4621 H         1 UNK         0.2987 
    111 H111       29.1770   32.5475    4.1648 H         1 UNK         0.0949 
    112 H112       31.0571   32.1348    1.7766 H         1 UNK         0.0806 
    113 H113       29.4472   32.8457    1.7269 H         1 UNK         0.0806 
    114 H114       30.7484   33.6734    2.5679 H         1 UNK         0.0806 
    115 H115       30.1154   32.6325    6.1026 H         1 UNK         0.3010 
    116 H116       31.9345   30.9961    7.2082 H         1 UNK         0.0829 
    117 H117       30.4539   32.4788    8.4949 H         1 UNK         0.0813 
    118 H118       32.1060   32.6841    9.0474 H         1 UNK         0.0813 
    119 H119       31.3799   33.8979    8.0029 H         1 UNK         0.0813 
    120 H120       32.8462   33.9569    5.4952 H         1 UNK         0.3038 
    121 H121       35.6230   33.9327    6.3343 H         1 UNK         0.0769 
    122 H122       34.2038   35.4446    4.0731 H         1 UNK         0.0811 
    123 H123       35.8248   35.7750    4.6668 H         1 UNK         0.0811 
    124 H124       34.4446   36.0371    5.7179 H         1 UNK         0.0811 
    125 H125       33.8912   32.0608    3.9812 H         1 UNK         0.3204 
    126 H126       36.3358   31.6273    2.3056 H         1 UNK         0.0748 
    127 H127       34.5299   32.8125    1.1113 H         1 UNK         0.0771 
    128 H128       34.6870   31.1851    0.4755 H         1 UNK         0.0771 
    129 H129       33.3666   31.5762    1.5723 H         1 UNK         0.0771 
    130 H130       34.8339   30.1090    4.8037 H         1 UNK         0.2980 
    131 H131       34.4561   27.4840    3.7260 H         1 UNK         0.0545 
    132 H132       38.4390   27.6071    4.3974 H         1 UNK         0.3459 
    133 H133       37.4862   29.0704    4.3847 H         1 UNK         0.3459 
    134 H134       34.2548   26.7075    6.0494 H         1 UNK         0.0616 
    135 H135       34.9494   28.1901    6.6513 H         1 UNK         0.0616 
    136 H136       30.5609   27.4559    5.6894 H         1 UNK         0.0634 
    137 H137       31.8109   26.2889    6.0389 H         1 UNK         0.0634 
@<TRIPOS>BOND
     1    1    2 1    
     2    1   72 1    
     3    1   73 1    
     4    1   74 1    
     5    2    3 2    
     6    2    4 am   BACKBONE|DICT|INTERRES
     7    4    5 1    
     8    4   75 1    
     9    5    6 1    
    10    5   35 1    
    11    5   76 1    
    12    6    7 1    
    13    6   77 1    
    14    6   78 1    
    15    7    8 1    
    16    8    9 1    
    17    8   79 1    
    18    8   80 1    
    19    9   10 ar   
    20    9   14 ar   
    21   10   11 ar   
    22   10   81 1    
    23   11   12 ar   
    24   11   71 1    
    25   12   13 ar   
    26   12   82 1    
    27   13   14 ar   
    28   13   15 1    
    29   14   83 1    
    30   15   16 1    
    31   15   84 1    
    32   15   85 1    
    33   16   17 1    
    34   17   18 1    
    35   17   86 1    
    36   17   87 1    
    37   18   19 1    
    38   18   37 1    
    39   18   88 1    
    40   19   20 am   BACKBONE|DICT|INTERRES
    41   19   89 1    
    42   20   21 2    
    43   20   22 1    
    44   22   23 1    
    45   22   24 1    
    46   22   90 1    
    47   23   91 1    
    48   23   92 1    
    49   23   93 1    
    50   24   25 am   BACKBONE|DICT|INTERRES
    51   24   94 1    
    52   25   26 2    
    53   25   27 1    
    54   27   28 1    
    55   27   29 1    
    56   27   95 1    
    57   28   96 1    
    58   28   97 1    
    59   28   98 1    
    60   29   30 am   BACKBONE|DICT|INTERRES
    61   29   99 1    
    62   30   31 2    
    63   30   32 1    
    64   32   33 1    
    65   32   34 1    
    66   32  100 1    
    67   33  101 1    
    68   33  102 1    
    69   33  103 1    
    70   34   35 am   BACKBONE|DICT|INTERRES
    71   34  104 1    
    72   35   36 2    
    73   37   38 2    
    74   37   39 am   BACKBONE|DICT|INTERRES
    75   39   40 1    
    76   39  105 1    
    77   40   41 1    
    78   40   42 1    
    79   40  106 1    
    80   41  107 1    
    81   41  108 1    
    82   41  109 1    
    83   42   43 2    
    84   42   44 am   BACKBONE|DICT|INTERRES
    85   44   45 1    
    86   44  110 1    
    87   45   46 1    
    88   45   47 1    
    89   45  111 1    
    90   46  112 1    
    91   46  113 1    
    92   46  114 1    
    93   47   48 2    
    94   47   49 am   BACKBONE|DICT|INTERRES
    95   49   50 1    
    96   49  115 1    
    97   50   51 1    
    98   50   52 1    
    99   50  116 1    
   100   51  117 1    
   101   51  118 1    
   102   51  119 1    
   103   52   53 2    
   104   52   54 am   BACKBONE|DICT|INTERRES
   105   54   55 1    
   106   54  120 1    
   107   55   56 1    
   108   55   57 1    
   109   55  121 1    
   110   56  122 1    
   111   56  123 1    
   112   56  124 1    
   113   57   58 2    
   114   57   59 am   BACKBONE|DICT|INTERRES
   115   59   60 1    
   116   59  125 1    
   117   60   61 1    
   118   60   62 1    
   119   60  126 1    
   120   61  127 1    
   121   61  128 1    
   122   61  129 1    
   123   62   63 2    
   124   62   64 am   BACKBONE|DICT|INTERRES
   125   64   65 1    
   126   64  130 1    
   127   65   66 1    
   128   65   69 1    
   129   65  131 1    
   130   66   67 am   BACKBONE|DICT|INTERRES
   131   66   68 2    
   132   67  132 1    
   133   67  133 1    
   134   69   70 1    
   135   69  134 1    
   136   69  135 1    
   137   70   71 1    
   138   71  136 1    
   139   71  137 1    
@<TRIPOS>SUBSTRUCTURE
     1 UNK         1 GROUP             0       ****    0 ROOT    
