@<TRIPOS>MOLECULE
3R136
137   139    1
SMALL
USER_CHARGES


@<TRIPOS>ATOM
      1 CA         27.5349   22.3123   -3.4866 C.3       0 UNK        -0.1979 
      2 C          27.9286   22.9173   -2.1484 C.2       0 UNK         0.4864 
      3 O          27.5678   24.0616   -1.8680 O.2       0 UNK        -0.5359 
      4 N          28.6513   22.1541   -1.3142 N.am      1 UNK        -0.4318 
      5 CA         29.1728   22.5643   -0.0016 C.3       1 UNK         0.0824 
      6 C6         29.9794   21.4340    0.6818 C.3       12 UNK        -0.0944 
      7 S7         31.5978   21.2063   -0.1312 S.3       12 UNK        -0.2672 
      8 C8         32.7738   21.6683    1.1868 C.3       12 UNK         0.0333 
      9 C9         32.6092   23.1104    1.6532 C.ar      12 UNK        -0.0807 
     10 C10        33.1131   24.1674    0.8887 C.ar      12 UNK        -0.0894 
     11 C11        32.9631   25.4910    1.3185 C.ar      12 UNK        -0.0804 
     12 C12        32.2887   25.7524    2.5158 C.ar      12 UNK        -0.0824 
     13 C13        31.8094   24.7041    3.3040 C.ar      12 UNK        -0.0762 
     14 C14        31.9756   23.3867    2.8683 C.ar      12 UNK        -0.0782 
     15 C15        31.1377   24.9804    4.6411 C.3       12 UNK         0.0230 
     16 S16        29.3635   24.5863    4.5796 S.3       12 UNK        -0.2608 
     17 C17        28.5348   26.2067    4.6876 C.3       12 UNK        -0.0989 
     18 CA         28.9812   27.3098    3.6895 C.3       5 UNK         0.0716 
     19 N          28.8784   26.9083    2.2780 N.am      5 UNK        -0.4135 
     20 C          29.2811   27.6698    1.2463 C.2       4 UNK         0.5031 
     21 O          29.8294   28.7632    1.3770 O.2       4 UNK        -0.5229 
     22 CA         28.9679   27.1802   -0.1789 C.3       4 UNK         0.0329 
     23 CB         30.0809   26.2634   -0.7025 C.3       4 UNK        -0.2001 
     24 N          27.6661   26.5217   -0.3121 N.am      4 UNK        -0.4303 
     25 C          26.4849   27.0896   -0.0268 C.2       3 UNK         0.5044 
     26 O          26.3666   28.2265    0.4305 O.2       3 UNK        -0.5152 
     27 CA         25.2281   26.2417   -0.2697 C.3       3 UNK         0.0319 
     28 CB         24.8235   26.2795   -1.7519 C.3       3 UNK        -0.2001 
     29 N          25.4415   24.8569    0.1504 N.am      3 UNK        -0.4354 
     30 C          25.2842   24.4241    1.4099 C.2       2 UNK         0.4964 
     31 O          24.8251   25.1159    2.3194 O.2       2 UNK        -0.5047 
     32 CA         25.7363   22.9837    1.7216 C.3       2 UNK         0.0288 
     33 CB         24.5735   21.9984    1.5214 C.3       2 UNK        -0.2113 
     34 N          26.8936   22.5339    0.9395 N.am      2 UNK        -0.4145 
     35 C          28.0951   23.1316    0.9433 C.2       1 UNK         0.5006 
     36 O          28.3515   24.1363    1.6036 O.2       1 UNK        -0.5103 
     37 C          28.1917   28.5990    4.0102 C.2       5 UNK         0.5055 
     38 O          28.6150   29.3582    4.8817 O.2       5 UNK        -0.5220 
     39 N          27.0528   28.8131    3.3352 N.am      6 UNK        -0.4450 
     40 CA         26.2246   30.0086    3.4956 C.3       6 UNK         0.0367 
     41 CB         24.7650   29.6820    3.1392 C.3       6 UNK        -0.1929 
     42 C          26.7501   31.1723    2.6428 C.2       6 UNK         0.5070 
     43 O          26.7296   32.3142    3.1025 O.2       6 UNK        -0.5237 
     44 N          27.2080   30.8659    1.4206 N.am      7 UNK        -0.4739 
     45 CA         27.7572   31.8347    0.4698 C.3       7 UNK         0.0276 
     46 CB         27.9025   31.1721   -0.9090 C.3       7 UNK        -0.1927 
     47 C          29.0971   32.4399    0.9222 C.2       7 UNK         0.5013 
     48 O          29.3058   33.6395    0.7345 O.2       7 UNK        -0.5193 
     49 N          29.9724   31.6116    1.5040 N.am      8 UNK        -0.4253 
     50 CA         31.2895   31.9949    1.9978 C.3       8 UNK         0.0242 
     51 CB         32.3621   31.5035    1.0074 C.3       8 UNK        -0.2000 
     52 C          31.4736   31.3950    3.3947 C.2       8 UNK         0.4948 
     53 O          31.9778   30.2805    3.5208 O.2       8 UNK        -0.5275 
     54 N          31.0787   32.1480    4.4300 N.am      9 UNK        -0.4246 
     55 CA         31.1462   31.7374    5.8405 C.3       9 UNK         0.0261 
     56 CB         30.4938   32.8220    6.7132 C.3       9 UNK        -0.1959 
     57 C          32.5620   31.4069    6.3571 C.2       9 UNK         0.5033 
     58 O          32.6894   30.6447    7.3162 O.2       9 UNK        -0.5390 
     59 N          33.5944   31.9755    5.7191 N.am      10 UNK        -0.4215 
     60 CA         35.0052   31.6956    5.9955 C.3       10 UNK         0.0240 
     61 CB         35.8520   32.8795    5.4984 C.3       10 UNK        -0.1982 
     62 C          35.5078   30.3789    5.3696 C.2       10 UNK         0.4970 
     63 O          36.5561   29.8881    5.7910 O.2       10 UNK        -0.4916 
     64 N          34.7915   29.8450    4.3714 N.am      11 UNK        -0.4279 
     65 CA         35.1158   28.5880    3.6864 C.3       11 UNK         0.1003 
     66 C          34.7205   27.3562    4.5477 C.2       11 UNK         0.5709 
     67 N          35.4897   26.2781    4.4824 N.am      11 UNK        -0.7358 
     68 O          33.7185   27.3615    5.2599 O.2       11 UNK        -0.4999 
     69 C69        34.4678   28.5825    2.2779 C.3       12 UNK        -0.0954 
     70 S70        35.0824   27.2842    1.1532 S.3       12 UNK        -0.2268 
     71 C71        33.5191   26.6339    0.4801 C.3       12 UNK         0.0203 
     72 H72        26.4498   22.2899   -3.5824 H         1 UNK         0.0888 
     73 H73        27.9365   22.9150   -4.3007 H         1 UNK         0.0888 
     74 H74        27.9081   21.2948   -3.6007 H         1 UNK         0.0888 
     75 H75        28.9234   21.2279   -1.6119 H         1 UNK         0.3017 
     76 H76        29.8607   23.3866   -0.1940 H         1 UNK         0.0873 
     77 H77        30.1394   21.6428    1.7404 H         1 UNK         0.0745 
     78 H78        29.4302   20.4915    0.6492 H         1 UNK         0.0745 
     79 H79        33.7895   21.5243    0.8154 H         1 UNK         0.0705 
     80 H80        32.6588   20.9778    2.0239 H         1 UNK         0.0705 
     81 H81        33.6207   23.9565   -0.0427 H         1 UNK         0.1334 
     82 H82        32.1527   26.7705    2.8498 H         1 UNK         0.1417 
     83 H83        31.6009   22.5764    3.4788 H         1 UNK         0.1562 
     84 H84        31.2973   26.0092    4.9646 H         1 UNK         0.0748 
     85 H85        31.6046   24.3563    5.4042 H         1 UNK         0.0748 
     86 H86        28.6663   26.5571    5.7138 H         1 UNK         0.0940 
     87 H87        27.4649   26.0171    4.5756 H         1 UNK         0.0940 
     88 H88        30.0306   27.5453    3.8718 H         1 UNK         0.0703 
     89 H89        28.5187   25.9743    2.0894 H         1 UNK         0.3081 
     90 H90        28.9323   28.0551   -0.8294 H         1 UNK         0.0719 
     91 H91        30.9733   26.8438   -0.9321 H         1 UNK         0.0809 
     92 H92        29.7912   25.7486   -1.6186 H         1 UNK         0.0809 
     93 H93        30.3625   25.5161    0.0379 H         1 UNK         0.0809 
     94 H94        27.6662   25.5898   -0.7187 H         1 UNK         0.2990 
     95 H95        24.4118   26.6767    0.3113 H         1 UNK         0.0690 
     96 H96        23.9058   25.7173   -1.9255 H         1 UNK         0.0788 
     97 H97        25.5979   25.8637   -2.3976 H         1 UNK         0.0788 
     98 H98        24.6426   27.3044   -2.0788 H         1 UNK         0.0788 
     99 H99        25.8823   24.2446   -0.5256 H         1 UNK         0.2993 
    100 H100       26.0288   22.9615    2.7739 H         1 UNK         0.0949 
    101 H101       23.7048   22.2954    2.1110 H         1 UNK         0.0767 
    102 H102       24.2589   21.9515    0.4780 H         1 UNK         0.0767 
    103 H103       24.8471   20.9912    1.8368 H         1 UNK         0.0767 
    104 H104       26.7608   21.7271    0.3472 H         1 UNK         0.3013 
    105 H105       26.7907   28.1757    2.5936 H         1 UNK         0.3121 
    106 H106       26.2486   30.3227    4.5416 H         1 UNK         0.0774 
    107 H107       24.1246   30.5510    3.2958 H         1 UNK         0.0815 
    108 H108       24.6547   29.3825    2.0968 H         1 UNK         0.0815 
    109 H109       24.3757   28.8764    3.7618 H         1 UNK         0.0815 
    110 H110       27.1295   29.9039    1.1033 H         1 UNK         0.2987 
    111 H111       27.0395   32.6531    0.3794 H         1 UNK         0.0949 
    112 H112       26.9562   30.7542   -1.2532 H         1 UNK         0.0806 
    113 H113       28.2298   31.8965   -1.6558 H         1 UNK         0.0806 
    114 H114       28.6387   30.3687   -0.8919 H         1 UNK         0.0806 
    115 H115       29.7415   30.6229    1.5975 H         1 UNK         0.3010 
    116 H116       31.3741   33.0804    2.0825 H         1 UNK         0.0829 
    117 H117       32.2538   31.9879    0.0371 H         1 UNK         0.0813 
    118 H118       33.3649   31.7268    1.3732 H         1 UNK         0.0813 
    119 H119       32.3011   30.4255    0.8491 H         1 UNK         0.0813 
    120 H120       30.6581   33.0472    4.2420 H         1 UNK         0.3038 
    121 H121       30.5574   30.8236    5.9387 H         1 UNK         0.0769 
    122 H122       31.0167   33.7756    6.6316 H         1 UNK         0.0811 
    123 H123       30.5030   32.5341    7.7656 H         1 UNK         0.0811 
    124 H124       29.4521   32.9821    6.4340 H         1 UNK         0.0811 
    125 H125       33.3936   32.6041    4.9552 H         1 UNK         0.3204 
    126 H126       35.1391   31.6135    7.0764 H         1 UNK         0.0748 
    127 H127       36.9090   32.7245    5.7204 H         1 UNK         0.0771 
    128 H128       35.7629   33.0166    4.4199 H         1 UNK         0.0771 
    129 H129       35.5558   33.8105    5.9822 H         1 UNK         0.0771 
    130 H130       33.8812   30.2323    4.1462 H         1 UNK         0.2980 
    131 H131       36.1987   28.5646    3.5473 H         1 UNK         0.0545 
    132 H132       36.2941   26.2515    3.8760 H         1 UNK         0.3459 
    133 H133       35.2412   25.4663    5.0242 H         1 UNK         0.3459 
    134 H134       33.3842   28.5243    2.3589 H         1 UNK         0.0616 
    135 H135       34.6702   29.5331    1.7825 H         1 UNK         0.0616 
    136 H136       32.7857   27.4378    0.4054 H         1 UNK         0.0634 
    137 H137       33.6989   26.2954   -0.5414 H         1 UNK         0.0634 
@<TRIPOS>BOND
     1    1    2 1    
     2    1   72 1    
     3    1   73 1    
     4    1   74 1    
     5    2    3 2    
     6    2    4 am   BACKBONE|DICT|INTERRES
     7    4    5 1    
     8    4   75 1    
     9    5    6 1    
    10    5   35 1    
    11    5   76 1    
    12    6    7 1    
    13    6   77 1    
    14    6   78 1    
    15    7    8 1    
    16    8    9 1    
    17    8   79 1    
    18    8   80 1    
    19    9   10 ar   
    20    9   14 ar   
    21   10   11 ar   
    22   10   81 1    
    23   11   12 ar   
    24   11   71 1    
    25   12   13 ar   
    26   12   82 1    
    27   13   14 ar   
    28   13   15 1    
    29   14   83 1    
    30   15   16 1    
    31   15   84 1    
    32   15   85 1    
    33   16   17 1    
    34   17   18 1    
    35   17   86 1    
    36   17   87 1    
    37   18   19 1    
    38   18   37 1    
    39   18   88 1    
    40   19   20 am   BACKBONE|DICT|INTERRES
    41   19   89 1    
    42   20   21 2    
    43   20   22 1    
    44   22   23 1    
    45   22   24 1    
    46   22   90 1    
    47   23   91 1    
    48   23   92 1    
    49   23   93 1    
    50   24   25 am   BACKBONE|DICT|INTERRES
    51   24   94 1    
    52   25   26 2    
    53   25   27 1    
    54   27   28 1    
    55   27   29 1    
    56   27   95 1    
    57   28   96 1    
    58   28   97 1    
    59   28   98 1    
    60   29   30 am   BACKBONE|DICT|INTERRES
    61   29   99 1    
    62   30   31 2    
    63   30   32 1    
    64   32   33 1    
    65   32   34 1    
    66   32  100 1    
    67   33  101 1    
    68   33  102 1    
    69   33  103 1    
    70   34   35 am   BACKBONE|DICT|INTERRES
    71   34  104 1    
    72   35   36 2    
    73   37   38 2    
    74   37   39 am   BACKBONE|DICT|INTERRES
    75   39   40 1    
    76   39  105 1    
    77   40   41 1    
    78   40   42 1    
    79   40  106 1    
    80   41  107 1    
    81   41  108 1    
    82   41  109 1    
    83   42   43 2    
    84   42   44 am   BACKBONE|DICT|INTERRES
    85   44   45 1    
    86   44  110 1    
    87   45   46 1    
    88   45   47 1    
    89   45  111 1    
    90   46  112 1    
    91   46  113 1    
    92   46  114 1    
    93   47   48 2    
    94   47   49 am   BACKBONE|DICT|INTERRES
    95   49   50 1    
    96   49  115 1    
    97   50   51 1    
    98   50   52 1    
    99   50  116 1    
   100   51  117 1    
   101   51  118 1    
   102   51  119 1    
   103   52   53 2    
   104   52   54 am   BACKBONE|DICT|INTERRES
   105   54   55 1    
   106   54  120 1    
   107   55   56 1    
   108   55   57 1    
   109   55  121 1    
   110   56  122 1    
   111   56  123 1    
   112   56  124 1    
   113   57   58 2    
   114   57   59 am   BACKBONE|DICT|INTERRES
   115   59   60 1    
   116   59  125 1    
   117   60   61 1    
   118   60   62 1    
   119   60  126 1    
   120   61  127 1    
   121   61  128 1    
   122   61  129 1    
   123   62   63 2    
   124   62   64 am   BACKBONE|DICT|INTERRES
   125   64   65 1    
   126   64  130 1    
   127   65   66 1    
   128   65   69 1    
   129   65  131 1    
   130   66   67 am   BACKBONE|DICT|INTERRES
   131   66   68 2    
   132   67  132 1    
   133   67  133 1    
   134   69   70 1    
   135   69  134 1    
   136   69  135 1    
   137   70   71 1    
   138   71  136 1    
   139   71  137 1    
@<TRIPOS>SUBSTRUCTURE
     1 UNK         1 GROUP             0       ****    0 ROOT    
