@<TRIPOS>MOLECULE
3R136
137   139    1
SMALL
USER_CHARGES


@<TRIPOS>ATOM
      1 CA         32.0722   28.2957    1.4379 C.3       0 UNK        -0.1979 
      2 C          31.0478   27.1980    1.1843 C.2       0 UNK         0.4864 
      3 O          29.8449   27.4474    1.2992 O.2       0 UNK        -0.5359 
      4 N          31.5232   25.9881    0.8613 N.am      1 UNK        -0.4318 
      5 CA         30.6992   24.8108    0.5794 C.3       1 UNK         0.0824 
      6 C6         31.5241   23.5017    0.7114 C.3       12 UNK        -0.0944 
      7 S7         30.4909   22.0715    1.1806 S.3       12 UNK        -0.2672 
      8 C8         30.7449   22.0045    2.9856 C.3       12 UNK         0.0333 
      9 C9         30.1893   23.2467    3.6647 C.ar      12 UNK        -0.0807 
     10 C10        31.0368   24.3069    3.9981 C.ar      12 UNK        -0.0894 
     11 C11        30.5163   25.4872    4.5336 C.ar      12 UNK        -0.0804 
     12 C12        29.1433   25.5912    4.7737 C.ar      12 UNK        -0.0824 
     13 C13        28.2897   24.5280    4.4641 C.ar      12 UNK        -0.0762 
     14 C14        28.8185   23.3572    3.9126 C.ar      12 UNK        -0.0782 
     15 C15        26.7933   24.6408    4.7083 C.3       12 UNK         0.0230 
     16 S16        25.8795   24.8987    3.1558 S.3       12 UNK        -0.2608 
     17 C17        26.1780   26.6715    2.8373 C.3       12 UNK        -0.0989 
     18 CA         26.0420   27.0429    1.3393 C.3       5 UNK         0.0716 
     19 N          24.7638   26.5844    0.7786 N.am      5 UNK        -0.4135 
     20 C          24.3291   26.7694   -0.4742 C.2       4 UNK         0.5031 
     21 O          24.9050   27.4491   -1.3263 O.2       4 UNK        -0.5229 
     22 CA         23.0926   25.9690   -0.8920 C.3       4 UNK         0.0329 
     23 CB         22.0287   26.8571   -1.5602 C.3       4 UNK        -0.2001 
     24 N          23.5984   24.9957   -1.8502 N.am      4 UNK        -0.4303 
     25 C          23.5024   23.6673   -1.7380 C.2       3 UNK         0.5044 
     26 O          22.7356   23.0892   -0.9669 O.2       3 UNK        -0.5152 
     27 CA         24.4795   22.8468   -2.6028 C.3       3 UNK         0.0319 
     28 CB         23.8790   22.5741   -3.9913 C.3       3 UNK        -0.2001 
     29 N          25.7975   23.4844   -2.7518 N.am      3 UNK        -0.4354 
     30 C          26.6340   23.7551   -1.7374 C.2       2 UNK         0.4964 
     31 O          26.4068   23.4545   -0.5621 O.2       2 UNK        -0.5047 
     32 CA         27.9312   24.4993   -2.0872 C.3       2 UNK         0.0288 
     33 CB         27.6496   25.9368   -2.5737 C.3       2 UNK        -0.2113 
     34 N          28.7700   24.5205   -0.8922 N.am      2 UNK        -0.4145 
     35 C          30.0405   24.9244   -0.8082 C.2       1 UNK         0.5006 
     36 O          30.6996   25.3414   -1.7647 O.2       1 UNK        -0.5103 
     37 C          26.2658   28.5565    1.1493 C.2       5 UNK         0.5055 
     38 O          25.3533   29.3435    1.4156 O.2       5 UNK        -0.5220 
     39 N          27.4766   28.9329    0.7195 N.am      6 UNK        -0.4450 
     40 CA         27.8769   30.3278    0.5283 C.3       6 UNK         0.0367 
     41 CB         29.0009   30.4010   -0.5176 C.3       6 UNK        -0.1929 
     42 C          28.3152   30.9835    1.8467 C.2       6 UNK         0.5070 
     43 O          28.1401   32.1924    1.9988 O.2       6 UNK        -0.5237 
     44 N          28.8689   30.1763    2.7680 N.am      7 UNK        -0.4739 
     45 CA         29.3265   30.5544    4.1147 C.3       7 UNK         0.0276 
     46 CB         28.1273   30.9315    5.0100 C.3       7 UNK        -0.1927 
     47 C          30.4388   31.6255    4.1143 C.2       7 UNK         0.5013 
     48 O          30.4930   32.4659    5.0148 O.2       7 UNK        -0.5193 
     49 N          31.3067   31.5680    3.0954 N.am      8 UNK        -0.4253 
     50 CA         32.4965   32.4061    2.9367 C.3       8 UNK         0.0242 
     51 CB         33.0270   32.2244    1.5031 C.3       8 UNK        -0.2000 
     52 C          33.5903   32.0623    3.9640 C.2       8 UNK         0.4948 
     53 O          33.5253   31.0137    4.6093 O.2       8 UNK        -0.5275 
     54 N          34.6187   32.9201    4.0475 N.am      9 UNK        -0.4246 
     55 CA         35.7744   32.8016    4.9529 C.3       9 UNK         0.0261 
     56 CB         36.7283   33.9827    4.7117 C.3       9 UNK        -0.1959 
     57 C          36.5450   31.4673    4.8732 C.2       9 UNK         0.5033 
     58 O          37.1784   31.0782    5.8560 O.2       9 UNK        -0.5390 
     59 N          36.4308   30.7640    3.7369 N.am      10 UNK        -0.4215 
     60 CA         36.9052   29.3947    3.5159 C.3       10 UNK         0.0240 
     61 CB         36.6028   28.9921    2.0629 C.3       10 UNK        -0.1982 
     62 C          36.3229   28.3505    4.4921 C.2       10 UNK         0.4970 
     63 O          36.9495   27.3070    4.6803 O.2       10 UNK        -0.4916 
     64 N          35.1648   28.6416    5.1049 N.am      11 UNK        -0.4279 
     65 CA         34.5787   27.8488    6.1972 C.3       11 UNK         0.1003 
     66 C          35.3740   27.9047    7.5372 C.2       11 UNK         0.5709 
     67 N          36.3112   28.8289    7.7241 N.am      11 UNK        -0.7358 
     68 O          35.1411   27.0866    8.4236 O.2       11 UNK        -0.4999 
     69 C69        33.0757   28.1980    6.4074 C.3       12 UNK        -0.0954 
     70 S70        32.0172   26.7190    6.5093 S.3       12 UNK        -0.2268 
     71 C71        31.4302   26.6705    4.7930 C.3       12 UNK         0.0203 
     72 H72        31.9719   29.0847    0.6943 H         1 UNK         0.0888 
     73 H73        31.9240   28.7278    2.4265 H         1 UNK         0.0888 
     74 H74        33.0928   27.9165    1.3900 H         1 UNK         0.0888 
     75 H75        32.5168   25.8637    0.7343 H         1 UNK         0.3017 
     76 H76        29.9051   24.8042    1.3298 H         1 UNK         0.0873 
     77 H77        32.0551   23.2671   -0.2136 H         1 UNK         0.0745 
     78 H78        32.3052   23.6134    1.4644 H         1 UNK         0.0745 
     79 H79        30.2499   21.1165    3.3815 H         1 UNK         0.0705 
     80 H80        31.8075   21.8850    3.2028 H         1 UNK         0.0705 
     81 H81        32.0974   24.2315    3.8014 H         1 UNK         0.1334 
     82 H82        28.7400   26.5055    5.1871 H         1 UNK         0.1417 
     83 H83        28.1571   22.5431    3.6478 H         1 UNK         0.1562 
     84 H84        26.5679   25.4483    5.4068 H         1 UNK         0.0748 
     85 H85        26.4361   23.7232    5.1782 H         1 UNK         0.0748 
     86 H86        27.1769   26.9322    3.1913 H         1 UNK         0.0940 
     87 H87        25.4768   27.2471    3.4456 H         1 UNK         0.0940 
     88 H88        26.8231   26.5132    0.7891 H         1 UNK         0.0703 
     89 H89        24.2289   25.9844    1.3893 H         1 UNK         0.3081 
     90 H90        22.6556   25.4782   -0.0193 H         1 UNK         0.0719 
     91 H91        22.4209   27.3761   -2.4359 H         1 UNK         0.0809 
     92 H92        21.1692   26.2678   -1.8800 H         1 UNK         0.0809 
     93 H93        21.6645   27.6154   -0.8660 H         1 UNK         0.0809 
     94 H94        24.2813   25.3647   -2.4981 H         1 UNK         0.2990 
     95 H95        24.6320   21.8879   -2.1028 H         1 UNK         0.0690 
     96 H96        24.5211   21.9187   -4.5802 H         1 UNK         0.0788 
     97 H97        23.7286   23.4950   -4.5563 H         1 UNK         0.0788 
     98 H98        22.9088   22.0823   -3.9061 H         1 UNK         0.0788 
     99 H99        26.0660   23.7521   -3.6883 H         1 UNK         0.2993 
    100 H100       28.4444   23.9362   -2.8694 H         1 UNK         0.0949 
    101 H101       27.3015   26.5714   -1.7595 H         1 UNK         0.0767 
    102 H102       28.5463   26.3993   -2.9858 H         1 UNK         0.0767 
    103 H103       26.8935   25.9628   -3.3588 H         1 UNK         0.0767 
    104 H104       28.3047   24.1358   -0.0769 H         1 UNK         0.3013 
    105 H105       28.2123   28.2359    0.6263 H         1 UNK         0.3121 
    106 H106       27.0246   30.8930    0.1441 H         1 UNK         0.0774 
    107 H107       29.8822   29.8414   -0.2075 H         1 UNK         0.0815 
    108 H108       29.3112   31.4334   -0.6851 H         1 UNK         0.0815 
    109 H109       28.6728   30.0017   -1.4774 H         1 UNK         0.0815 
    110 H110       28.9923   29.2032    2.5139 H         1 UNK         0.2987 
    111 H111       29.7809   29.6624    4.5461 H         1 UNK         0.0949 
    112 H112       27.3712   30.1463    5.0117 H         1 UNK         0.0806 
    113 H113       28.4412   31.0791    6.0441 H         1 UNK         0.0806 
    114 H114       27.6511   31.8554    4.6803 H         1 UNK         0.0806 
    115 H115       31.1666   30.8482    2.4048 H         1 UNK         0.3010 
    116 H116       32.2029   33.4479    3.0821 H         1 UNK         0.0829 
    117 H117       33.8651   32.8924    1.3011 H         1 UNK         0.0813 
    118 H118       33.3736   31.2055    1.3253 H         1 UNK         0.0813 
    119 H119       32.2575   32.4498    0.7640 H         1 UNK         0.0813 
    120 H120       34.5971   33.7464    3.4665 H         1 UNK         0.3038 
    121 H121       35.3879   32.8787    5.9712 H         1 UNK         0.0769 
    122 H122       37.1182   33.9854    3.6930 H         1 UNK         0.0811 
    123 H123       37.5839   33.9388    5.3875 H         1 UNK         0.0811 
    124 H124       36.2321   34.9377    4.8855 H         1 UNK         0.0811 
    125 H125       35.8893   31.1761    2.9920 H         1 UNK         0.3204 
    126 H126       37.9880   29.3981    3.6562 H         1 UNK         0.0748 
    127 H127       36.9661   27.9851    1.8521 H         1 UNK         0.0771 
    128 H128       35.5318   29.0021    1.8560 H         1 UNK         0.0771 
    129 H129       37.0893   29.6631    1.3545 H         1 UNK         0.0771 
    130 H130       34.6967   29.5199    4.8969 H         1 UNK         0.2980 
    131 H131       34.6450   26.8098    5.8686 H         1 UNK         0.0545 
    132 H132       36.5247   29.5153    7.0090 H         1 UNK         0.3459 
    133 H133       36.8159   28.8440    8.5958 H         1 UNK         0.3459 
    134 H134       32.6988   28.8159    5.5927 H         1 UNK         0.0616 
    135 H135       32.9178   28.8003    7.3042 H         1 UNK         0.0616 
    136 H136       30.9018   27.5955    4.5629 H         1 UNK         0.0634 
    137 H137       32.2916   26.6336    4.1241 H         1 UNK         0.0634 
@<TRIPOS>BOND
     1    1    2 1    
     2    1   72 1    
     3    1   73 1    
     4    1   74 1    
     5    2    3 2    
     6    2    4 am   BACKBONE|DICT|INTERRES
     7    4    5 1    
     8    4   75 1    
     9    5    6 1    
    10    5   35 1    
    11    5   76 1    
    12    6    7 1    
    13    6   77 1    
    14    6   78 1    
    15    7    8 1    
    16    8    9 1    
    17    8   79 1    
    18    8   80 1    
    19    9   10 ar   
    20    9   14 ar   
    21   10   11 ar   
    22   10   81 1    
    23   11   12 ar   
    24   11   71 1    
    25   12   13 ar   
    26   12   82 1    
    27   13   14 ar   
    28   13   15 1    
    29   14   83 1    
    30   15   16 1    
    31   15   84 1    
    32   15   85 1    
    33   16   17 1    
    34   17   18 1    
    35   17   86 1    
    36   17   87 1    
    37   18   19 1    
    38   18   37 1    
    39   18   88 1    
    40   19   20 am   BACKBONE|DICT|INTERRES
    41   19   89 1    
    42   20   21 2    
    43   20   22 1    
    44   22   23 1    
    45   22   24 1    
    46   22   90 1    
    47   23   91 1    
    48   23   92 1    
    49   23   93 1    
    50   24   25 am   BACKBONE|DICT|INTERRES
    51   24   94 1    
    52   25   26 2    
    53   25   27 1    
    54   27   28 1    
    55   27   29 1    
    56   27   95 1    
    57   28   96 1    
    58   28   97 1    
    59   28   98 1    
    60   29   30 am   BACKBONE|DICT|INTERRES
    61   29   99 1    
    62   30   31 2    
    63   30   32 1    
    64   32   33 1    
    65   32   34 1    
    66   32  100 1    
    67   33  101 1    
    68   33  102 1    
    69   33  103 1    
    70   34   35 am   BACKBONE|DICT|INTERRES
    71   34  104 1    
    72   35   36 2    
    73   37   38 2    
    74   37   39 am   BACKBONE|DICT|INTERRES
    75   39   40 1    
    76   39  105 1    
    77   40   41 1    
    78   40   42 1    
    79   40  106 1    
    80   41  107 1    
    81   41  108 1    
    82   41  109 1    
    83   42   43 2    
    84   42   44 am   BACKBONE|DICT|INTERRES
    85   44   45 1    
    86   44  110 1    
    87   45   46 1    
    88   45   47 1    
    89   45  111 1    
    90   46  112 1    
    91   46  113 1    
    92   46  114 1    
    93   47   48 2    
    94   47   49 am   BACKBONE|DICT|INTERRES
    95   49   50 1    
    96   49  115 1    
    97   50   51 1    
    98   50   52 1    
    99   50  116 1    
   100   51  117 1    
   101   51  118 1    
   102   51  119 1    
   103   52   53 2    
   104   52   54 am   BACKBONE|DICT|INTERRES
   105   54   55 1    
   106   54  120 1    
   107   55   56 1    
   108   55   57 1    
   109   55  121 1    
   110   56  122 1    
   111   56  123 1    
   112   56  124 1    
   113   57   58 2    
   114   57   59 am   BACKBONE|DICT|INTERRES
   115   59   60 1    
   116   59  125 1    
   117   60   61 1    
   118   60   62 1    
   119   60  126 1    
   120   61  127 1    
   121   61  128 1    
   122   61  129 1    
   123   62   63 2    
   124   62   64 am   BACKBONE|DICT|INTERRES
   125   64   65 1    
   126   64  130 1    
   127   65   66 1    
   128   65   69 1    
   129   65  131 1    
   130   66   67 am   BACKBONE|DICT|INTERRES
   131   66   68 2    
   132   67  132 1    
   133   67  133 1    
   134   69   70 1    
   135   69  134 1    
   136   69  135 1    
   137   70   71 1    
   138   71  136 1    
   139   71  137 1    
@<TRIPOS>SUBSTRUCTURE
     1 UNK         1 GROUP             0       ****    0 ROOT    
