@<TRIPOS>MOLECULE
3R136
137   139    1
SMALL
USER_CHARGES


@<TRIPOS>ATOM
      1 CA         27.5149   18.2313    1.4437 C.3       0 UNK        -0.1979 
      2 C          28.3542   18.7430    0.2819 C.2       0 UNK         0.4864 
      3 O          28.4443   18.0742   -0.7493 O.2       0 UNK        -0.5359 
      4 N          28.9731   19.9183    0.4457 N.am      1 UNK        -0.4318 
      5 CA         29.7500   20.6102   -0.5864 C.3       1 UNK         0.0824 
      6 C6         30.8493   21.5125    0.0382 C.3       12 UNK        -0.0944 
      7 S7         30.2254   22.8364    1.1329 S.3       12 UNK        -0.2672 
      8 C8         30.6419   22.1704    2.7727 C.3       12 UNK         0.0333 
      9 C9         30.1758   23.1047    3.8785 C.ar      12 UNK        -0.0807 
     10 C10        31.0712   24.0029    4.4662 C.ar      12 UNK        -0.0894 
     11 C11        30.6535   24.8623    5.4907 C.ar      12 UNK        -0.0804 
     12 C12        29.3317   24.7912    5.9406 C.ar      12 UNK        -0.0824 
     13 C13        28.4221   23.9076    5.3511 C.ar      12 UNK        -0.0762 
     14 C14        28.8504   23.0655    4.3209 C.ar      12 UNK        -0.0782 
     15 C15        26.9766   23.8597    5.8252 C.3       12 UNK         0.0230 
     16 S16        25.9009   24.9327    4.8193 S.3       12 UNK        -0.2608 
     17 C17        26.4020   26.5955    5.3828 C.3       12 UNK        -0.0989 
     18 CA         27.4035   27.2786    4.4158 C.3       5 UNK         0.0716 
     19 N          26.8353   27.4352    3.0713 N.am      5 UNK        -0.4135 
     20 C          27.5581   27.6049    1.9595 C.2       4 UNK         0.5031 
     21 O          28.7794   27.7696    1.9578 O.2       4 UNK        -0.5229 
     22 CA         26.7734   27.6292    0.6352 C.3       4 UNK         0.0329 
     23 CB         26.1471   29.0128    0.3905 C.3       4 UNK        -0.2001 
     24 N          27.6463   27.2858   -0.4888 N.am      4 UNK        -0.4303 
     25 C          28.0816   26.0451   -0.7397 C.2       3 UNK         0.5044 
     26 O          27.6475   25.0396   -0.1732 O.2       3 UNK        -0.5152 
     27 CA         29.2266   25.9290   -1.7605 C.3       3 UNK         0.0319 
     28 CB         30.5716   26.2645   -1.0916 C.3       3 UNK        -0.2001 
     29 N          29.3113   24.5849   -2.3315 N.am      3 UNK        -0.4354 
     30 C          28.4914   24.0977   -3.2728 C.2       2 UNK         0.4964 
     31 O          27.6099   24.7614   -3.8208 O.2       2 UNK        -0.5047 
     32 CA         28.6969   22.6301   -3.6973 C.3       2 UNK         0.0288 
     33 CB         29.4766   22.5588   -5.0212 C.3       2 UNK        -0.2113 
     34 N          29.3906   21.8198   -2.6897 N.am      2 UNK        -0.4145 
     35 C          28.8249   21.3805   -1.5562 C.2       1 UNK         0.5006 
     36 O          27.6392   21.5727   -1.2703 O.2       1 UNK        -0.5103 
     37 C          27.9489   28.5862    5.0344 C.2       5 UNK         0.5055 
     38 O          28.5434   28.5256    6.1119 O.2       5 UNK        -0.5220 
     39 N          27.7190   29.7374    4.3855 N.am      6 UNK        -0.4450 
     40 CA         28.1441   31.0636    4.8353 C.3       6 UNK         0.0367 
     41 CB         27.5265   32.1282    3.9141 C.3       6 UNK        -0.1929 
     42 C          29.6765   31.1888    4.8732 C.2       6 UNK         0.5070 
     43 O          30.3142   31.1539    3.8177 O.2       6 UNK        -0.5237 
     44 N          30.2349   31.3227    6.0827 N.am      7 UNK        -0.4739 
     45 CA         31.6709   31.4550    6.3393 C.3       7 UNK         0.0276 
     46 CB         31.9171   31.4669    7.8558 C.3       7 UNK        -0.1927 
     47 C          32.2618   32.7135    5.6859 C.2       7 UNK         0.5013 
     48 O          31.6521   33.7826    5.7657 O.2       7 UNK        -0.5193 
     49 N          33.4181   32.5515    5.0307 N.am      8 UNK        -0.4253 
     50 CA         34.1873   33.5299    4.2488 C.3       8 UNK         0.0242 
     51 CB         34.5984   34.7509    5.0950 C.3       8 UNK        -0.2000 
     52 C          33.5077   33.9592    2.9359 C.2       8 UNK         0.4948 
     53 O          34.1995   34.1134    1.9290 O.2       8 UNK        -0.5275 
     54 N          32.1803   34.1316    2.9568 N.am      9 UNK        -0.4246 
     55 CA         31.3514   34.4710    1.8010 C.3       9 UNK         0.0261 
     56 CB         29.9487   34.8722    2.2821 C.3       9 UNK        -0.1959 
     57 C          31.2649   33.3371    0.7657 C.2       9 UNK         0.5033 
     58 O          31.2608   33.6261   -0.4323 O.2       9 UNK        -0.5390 
     59 N          31.1970   32.0835    1.2338 N.am      10 UNK        -0.4215 
     60 CA         31.1074   30.8912    0.3918 C.3       10 UNK         0.0240 
     61 CB         29.6376   30.4725    0.2423 C.3       10 UNK        -0.1982 
     62 C          31.9746   29.7498    0.9378 C.2       10 UNK         0.4970 
     63 O          32.7914   29.2136    0.1882 O.2       10 UNK        -0.4916 
     64 N          31.8058   29.4066    2.2210 N.am      11 UNK        -0.4279 
     65 CA         32.6378   28.4273    2.9285 C.3       11 UNK         0.1003 
     66 C          34.0017   29.0722    3.2989 C.2       11 UNK         0.5709 
     67 N          35.0993   28.6022    2.7225 N.am      11 UNK        -0.7358 
     68 O          34.0700   29.9815    4.1231 O.2       11 UNK        -0.4999 
     69 C69        31.8859   27.8338    4.1523 C.3       12 UNK        -0.0954 
     70 S70        32.8574   26.5662    5.0382 S.3       12 UNK        -0.2268 
     71 C71        31.6151   25.8428    6.1597 C.3       12 UNK         0.0203 
     72 H72        26.4770   18.1146    1.1332 H         1 UNK         0.0888 
     73 H73        27.8836   17.2607    1.7744 H         1 UNK         0.0888 
     74 H74        27.5396   18.9111    2.2953 H         1 UNK         0.0888 
     75 H75        28.8134   20.4521    1.2869 H         1 UNK         0.3017 
     76 H76        30.2612   19.8517   -1.1840 H         1 UNK         0.0873 
     77 H77        31.4503   21.9799   -0.7435 H         1 UNK         0.0745 
     78 H78        31.5508   20.8902    0.5962 H         1 UNK         0.0745 
     79 H79        31.7204   22.0168    2.8361 H         1 UNK         0.0705 
     80 H80        30.1829   21.1892    2.9004 H         1 UNK         0.0705 
     81 H81        32.0958   24.0291    4.1225 H         1 UNK         0.1334 
     82 H82        29.0045   25.4406    6.7412 H         1 UNK         0.1417 
     83 H83        28.1502   22.3821    3.8599 H         1 UNK         0.1562 
     84 H84        26.9047   24.1415    6.8769 H         1 UNK         0.0748 
     85 H85        26.6049   22.8357    5.7631 H         1 UNK         0.0748 
     86 H86        26.8186   26.5134    6.3885 H         1 UNK         0.0940 
     87 H87        25.5021   27.2045    5.4881 H         1 UNK         0.0940 
     88 H88        28.2712   26.6263    4.3115 H         1 UNK         0.0703 
     89 H89        25.8367   27.3065    2.9949 H         1 UNK         0.3081 
     90 H90        25.9711   26.8900    0.6928 H         1 UNK         0.0719 
     91 H91        25.4530   29.2773    1.1892 H         1 UNK         0.0809 
     92 H92        26.8979   29.8004    0.3399 H         1 UNK         0.0809 
     93 H93        25.5824   29.0308   -0.5419 H         1 UNK         0.0809 
     94 H94        28.0738   28.0573   -0.9779 H         1 UNK         0.2990 
     95 H95        29.0486   26.6423   -2.5684 H         1 UNK         0.0690 
     96 H96        30.7947   25.5812   -0.2710 H         1 UNK         0.0788 
     97 H97        30.5660   27.2723   -0.6747 H         1 UNK         0.0788 
     98 H98        31.3952   26.2157   -1.8041 H         1 UNK         0.0788 
     99 H99        29.9670   23.9546   -1.8959 H         1 UNK         0.2993 
    100 H100       27.7061   22.2004   -3.8625 H         1 UNK         0.0949 
    101 H101       30.4825   22.9687   -4.9211 H         1 UNK         0.0767 
    102 H102       29.5647   21.5315   -5.3756 H         1 UNK         0.0767 
    103 H103       28.9701   23.1264   -5.8034 H         1 UNK         0.0767 
    104 H104       30.3624   21.6102   -2.8690 H         1 UNK         0.3013 
    105 H105       27.2534   29.6903    3.4925 H         1 UNK         0.3121 
    106 H106       27.7492   31.2174    5.8417 H         1 UNK         0.0774 
    107 H107       27.7830   33.1310    4.2574 H         1 UNK         0.0815 
    108 H108       27.8796   32.0312    2.8863 H         1 UNK         0.0815 
    109 H109       26.4385   32.0626    3.9029 H         1 UNK         0.0815 
    110 H110       29.6323   31.3399    6.8926 H         1 UNK         0.2987 
    111 H111       32.1643   30.5769    5.9210 H         1 UNK         0.0949 
    112 H112       32.9829   31.5393    8.0771 H         1 UNK         0.0806 
    113 H113       31.4261   32.3136    8.3375 H         1 UNK         0.0806 
    114 H114       31.5518   30.5531    8.3251 H         1 UNK         0.0806 
    115 H115       33.7639   31.5968    4.9376 H         1 UNK         0.3010 
    116 H116       35.1029   33.0090    3.9634 H         1 UNK         0.0829 
    117 H117       35.1249   34.4472    5.9998 H         1 UNK         0.0813 
    118 H118       35.2688   35.4024    4.5329 H         1 UNK         0.0813 
    119 H119       33.7398   35.3536    5.3920 H         1 UNK         0.0813 
    120 H120       31.7135   34.0194    3.8526 H         1 UNK         0.3038 
    121 H121       31.8026   35.3349    1.3083 H         1 UNK         0.0769 
    122 H122       29.9883   35.7360    2.9460 H         1 UNK         0.0811 
    123 H123       29.3070   35.1380    1.4410 H         1 UNK         0.0811 
    124 H124       29.4639   34.0581    2.8197 H         1 UNK         0.0811 
    125 H125       31.1563   31.9311    2.2382 H         1 UNK         0.3204 
    126 H126       31.4934   31.1173   -0.6047 H         1 UNK         0.0748 
    127 H127       29.0637   31.2312   -0.2897 H         1 UNK         0.0771 
    128 H128       29.5516   29.5427   -0.3192 H         1 UNK         0.0771 
    129 H129       29.1678   30.3189    1.2142 H         1 UNK         0.0771 
    130 H130       31.1367   29.9191    2.7909 H         1 UNK         0.2980 
    131 H131       32.8248   27.5964    2.2449 H         1 UNK         0.0545 
    132 H132       35.0502   27.8631    2.0389 H         1 UNK         0.3459 
    133 H133       35.9905   29.0051    2.9641 H         1 UNK         0.3459 
    134 H134       31.6061   28.6161    4.8576 H         1 UNK         0.0616 
    135 H135       30.9516   27.3775    3.8203 H         1 UNK         0.0616 
    136 H136       31.0648   26.6565    6.6357 H         1 UNK         0.0634 
    137 H137       32.1391   25.3146    6.9569 H         1 UNK         0.0634 
@<TRIPOS>BOND
     1    1    2 1    
     2    1   72 1    
     3    1   73 1    
     4    1   74 1    
     5    2    3 2    
     6    2    4 am   BACKBONE|DICT|INTERRES
     7    4    5 1    
     8    4   75 1    
     9    5    6 1    
    10    5   35 1    
    11    5   76 1    
    12    6    7 1    
    13    6   77 1    
    14    6   78 1    
    15    7    8 1    
    16    8    9 1    
    17    8   79 1    
    18    8   80 1    
    19    9   10 ar   
    20    9   14 ar   
    21   10   11 ar   
    22   10   81 1    
    23   11   12 ar   
    24   11   71 1    
    25   12   13 ar   
    26   12   82 1    
    27   13   14 ar   
    28   13   15 1    
    29   14   83 1    
    30   15   16 1    
    31   15   84 1    
    32   15   85 1    
    33   16   17 1    
    34   17   18 1    
    35   17   86 1    
    36   17   87 1    
    37   18   19 1    
    38   18   37 1    
    39   18   88 1    
    40   19   20 am   BACKBONE|DICT|INTERRES
    41   19   89 1    
    42   20   21 2    
    43   20   22 1    
    44   22   23 1    
    45   22   24 1    
    46   22   90 1    
    47   23   91 1    
    48   23   92 1    
    49   23   93 1    
    50   24   25 am   BACKBONE|DICT|INTERRES
    51   24   94 1    
    52   25   26 2    
    53   25   27 1    
    54   27   28 1    
    55   27   29 1    
    56   27   95 1    
    57   28   96 1    
    58   28   97 1    
    59   28   98 1    
    60   29   30 am   BACKBONE|DICT|INTERRES
    61   29   99 1    
    62   30   31 2    
    63   30   32 1    
    64   32   33 1    
    65   32   34 1    
    66   32  100 1    
    67   33  101 1    
    68   33  102 1    
    69   33  103 1    
    70   34   35 am   BACKBONE|DICT|INTERRES
    71   34  104 1    
    72   35   36 2    
    73   37   38 2    
    74   37   39 am   BACKBONE|DICT|INTERRES
    75   39   40 1    
    76   39  105 1    
    77   40   41 1    
    78   40   42 1    
    79   40  106 1    
    80   41  107 1    
    81   41  108 1    
    82   41  109 1    
    83   42   43 2    
    84   42   44 am   BACKBONE|DICT|INTERRES
    85   44   45 1    
    86   44  110 1    
    87   45   46 1    
    88   45   47 1    
    89   45  111 1    
    90   46  112 1    
    91   46  113 1    
    92   46  114 1    
    93   47   48 2    
    94   47   49 am   BACKBONE|DICT|INTERRES
    95   49   50 1    
    96   49  115 1    
    97   50   51 1    
    98   50   52 1    
    99   50  116 1    
   100   51  117 1    
   101   51  118 1    
   102   51  119 1    
   103   52   53 2    
   104   52   54 am   BACKBONE|DICT|INTERRES
   105   54   55 1    
   106   54  120 1    
   107   55   56 1    
   108   55   57 1    
   109   55  121 1    
   110   56  122 1    
   111   56  123 1    
   112   56  124 1    
   113   57   58 2    
   114   57   59 am   BACKBONE|DICT|INTERRES
   115   59   60 1    
   116   59  125 1    
   117   60   61 1    
   118   60   62 1    
   119   60  126 1    
   120   61  127 1    
   121   61  128 1    
   122   61  129 1    
   123   62   63 2    
   124   62   64 am   BACKBONE|DICT|INTERRES
   125   64   65 1    
   126   64  130 1    
   127   65   66 1    
   128   65   69 1    
   129   65  131 1    
   130   66   67 am   BACKBONE|DICT|INTERRES
   131   66   68 2    
   132   67  132 1    
   133   67  133 1    
   134   69   70 1    
   135   69  134 1    
   136   69  135 1    
   137   70   71 1    
   138   71  136 1    
   139   71  137 1    
@<TRIPOS>SUBSTRUCTURE
     1 UNK         1 GROUP             0       ****    0 ROOT    
