@<TRIPOS>MOLECULE
3R136
137   139    1
SMALL
USER_CHARGES


@<TRIPOS>ATOM
      1 CA         26.3782   26.2925    3.3635 C.3       0 UNK        -0.1979 
      2 C          26.8913   25.0910    2.5869 C.2       0 UNK         0.4864 
      3 O          27.3375   25.2467    1.4462 O.2       0 UNK        -0.5359 
      4 N          26.8430   23.9024    3.2035 N.am      1 UNK        -0.4318 
      5 CA         27.2565   22.6073    2.6495 C.3       1 UNK         0.0824 
      6 C6         28.7811   22.5082    2.3680 C.3       12 UNK        -0.0944 
      7 S7         29.7646   22.5623    3.9007 S.3       12 UNK        -0.2672 
      8 C8         31.3286   21.8130    3.3436 C.3       12 UNK         0.0333 
      9 C9         32.1297   22.7667    2.4686 C.ar      12 UNK        -0.0807 
     10 C10        33.1075   23.5878    3.0374 C.ar      12 UNK        -0.0894 
     11 C11        33.8412   24.4744    2.2431 C.ar      12 UNK        -0.0804 
     12 C12        33.5912   24.5350    0.8687 C.ar      12 UNK        -0.0824 
     13 C13        32.6215   23.7128    0.2865 C.ar      12 UNK        -0.0762 
     14 C14        31.9011   22.8246    1.0905 C.ar      12 UNK        -0.0782 
     15 C15        32.3665   23.7650   -1.2141 C.3       12 UNK         0.0230 
     16 S16        31.7442   25.3846   -1.7685 S.3       12 UNK        -0.2608 
     17 C17        30.1240   25.4891   -0.9357 C.3       12 UNK        -0.0989 
     18 CA         29.8073   26.9348   -0.4810 C.3       5 UNK         0.0716 
     19 N          28.3715   27.1451   -0.2894 N.am      5 UNK        -0.4135 
     20 C          27.7559   28.3303   -0.3943 C.2       4 UNK         0.5031 
     21 O          28.3141   29.3585   -0.7786 O.2       4 UNK        -0.5229 
     22 CA         26.2625   28.3552   -0.0327 C.3       4 UNK         0.0329 
     23 CB         25.5523   29.6535   -0.4683 C.3       4 UNK        -0.2001 
     24 N          25.5967   27.1901   -0.6130 N.am      4 UNK        -0.4303 
     25 C          24.4881   26.6098   -0.1391 C.2       3 UNK         0.5044 
     26 O          23.8700   26.9946    0.8531 O.2       3 UNK        -0.5152 
     27 CA         24.0158   25.3654   -0.8941 C.3       3 UNK         0.0319 
     28 CB         23.6340   25.7177   -2.3497 C.3       3 UNK        -0.2001 
     29 N          25.0662   24.3482   -0.8238 N.am      3 UNK        -0.4354 
     30 C          24.9852   23.0937   -1.2869 C.2       2 UNK         0.4964 
     31 O          24.0051   22.6324   -1.8723 O.2       2 UNK        -0.5047 
     32 CA         26.2060   22.1873   -1.0482 C.3       2 UNK         0.0288 
     33 CB         27.2090   22.3198   -2.2064 C.3       2 UNK        -0.2113 
     34 N          26.8949   22.4570    0.2160 N.am      2 UNK        -0.4145 
     35 C          26.3797   22.2382    1.4350 C.2       1 UNK         0.5006 
     36 O          25.2568   21.7686    1.6294 O.2       1 UNK        -0.5103 
     37 C          30.5623   27.3355    0.8001 C.2       5 UNK         0.5055 
     38 O          31.5470   28.0714    0.7239 O.2       5 UNK        -0.5220 
     39 N          30.0394   26.9114    1.9590 N.am      6 UNK        -0.4450 
     40 CA         30.4694   27.3675    3.2801 C.3       6 UNK         0.0367 
     41 CB         30.3057   26.2218    4.2931 C.3       6 UNK        -0.1929 
     42 C          29.6763   28.6265    3.6652 C.2       6 UNK         0.5070 
     43 O          28.8231   28.5800    4.5536 O.2       6 UNK        -0.5237 
     44 N          29.9293   29.7234    2.9426 N.am      7 UNK        -0.4739 
     45 CA         29.2671   31.0219    3.0833 C.3       7 UNK         0.0276 
     46 CB         29.4944   31.8315    1.7940 C.3       7 UNK        -0.1927 
     47 C          29.7053   31.7834    4.3517 C.2       7 UNK         0.5013 
     48 O          30.3337   32.8413    4.2550 O.2       7 UNK        -0.5193 
     49 N          29.3496   31.2279    5.5185 N.am      8 UNK        -0.4253 
     50 CA         29.5720   31.7481    6.8712 C.3       8 UNK         0.0242 
     51 CB         28.6929   32.9943    7.1255 C.3       8 UNK        -0.2000 
     52 C          31.0662   31.9708    7.1684 C.2       8 UNK         0.4948 
     53 O          31.7642   31.0082    7.4893 O.2       8 UNK        -0.5275 
     54 N          31.5246   33.2258    7.0678 N.am      9 UNK        -0.4246 
     55 CA         32.9208   33.6249    7.2534 C.3       9 UNK         0.0261 
     56 CB         32.9837   35.1444    7.4798 C.3       9 UNK        -0.1959 
     57 C          33.8338   33.2173    6.0823 C.2       9 UNK         0.5033 
     58 O          35.0403   33.0785    6.2923 O.2       9 UNK        -0.5390 
     59 N          33.2630   33.0427    4.8832 N.am      10 UNK        -0.4215 
     60 CA         33.9613   32.5545    3.6947 C.3       10 UNK         0.0240 
     61 CB         33.4337   33.3130    2.4654 C.3       10 UNK        -0.1982 
     62 C          33.7408   31.0425    3.5429 C.2       10 UNK         0.4970 
     63 O          32.7933   30.4969    4.1113 O.2       10 UNK        -0.4916 
     64 N          34.6056   30.3931    2.7591 N.am      11 UNK        -0.4279 
     65 CA         34.5177   28.9637    2.4544 C.3       11 UNK         0.1003 
     66 C          35.1157   28.6978    1.0536 C.2       11 UNK         0.5709 
     67 N          34.3248   28.1952    0.1174 N.am      11 UNK        -0.7358 
     68 O          36.2973   28.9409    0.8169 O.2       11 UNK        -0.4999 
     69 C69        35.1634   28.0871    3.5680 C.3       12 UNK        -0.0954 
     70 S70        34.1536   26.6205    3.9429 S.3       12 UNK        -0.2268 
     71 C71        34.9059   25.3615    2.8695 C.3       12 UNK         0.0203 
     72 H72        26.9716   27.1756    3.1329 H         1 UNK         0.0888 
     73 H73        25.3429   26.4993    3.0957 H         1 UNK         0.0888 
     74 H74        26.4299   26.1279    4.4395 H         1 UNK         0.0888 
     75 H75        26.4500   23.8540    4.1331 H         1 UNK         0.3017 
     76 H76        27.0195   21.8634    3.4123 H         1 UNK         0.0873 
     77 H77        29.1206   23.3125    1.7149 H         1 UNK         0.0745 
     78 H78        29.0085   21.5694    1.8592 H         1 UNK         0.0745 
     79 H79        31.9135   21.5359    4.2219 H         1 UNK         0.0705 
     80 H80        31.1280   20.8824    2.8104 H         1 UNK         0.0705 
     81 H81        33.2922   23.5471    4.1023 H         1 UNK         0.1334 
     82 H82        34.1495   25.2225    0.2476 H         1 UNK         0.1417 
     83 H83        31.1573   22.1789    0.6447 H         1 UNK         0.1562 
     84 H84        31.6603   22.9916   -1.5204 H         1 UNK         0.0748 
     85 H85        33.2993   23.5507   -1.7375 H         1 UNK         0.0748 
     86 H86        30.0670   24.7897   -0.1005 H         1 UNK         0.0940 
     87 H87        29.3776   25.1539   -1.6575 H         1 UNK         0.0940 
     88 H88        30.1340   27.6113   -1.2746 H         1 UNK         0.0703 
     89 H89        27.8576   26.3744    0.1340 H         1 UNK         0.3081 
     90 H90        26.2098   28.2868    1.0554 H         1 UNK         0.0719 
     91 H91        26.0269   30.5289   -0.0228 H         1 UNK         0.0809 
     92 H92        25.5789   29.7805   -1.5511 H         1 UNK         0.0809 
     93 H93        24.5082   29.6613   -0.1554 H         1 UNK         0.0809 
     94 H94        26.0294   26.8052   -1.4419 H         1 UNK         0.2990 
     95 H95        23.1317   24.9793   -0.3826 H         1 UNK         0.0690 
     96 H96        22.9699   26.5828   -2.3813 H         1 UNK         0.0788 
     97 H97        23.1042   24.8991   -2.8359 H         1 UNK         0.0788 
     98 H98        24.5080   25.9533   -2.9574 H         1 UNK         0.0788 
     99 H99        25.8875   24.6059   -0.2897 H         1 UNK         0.2993 
    100 H100       25.8471   21.1560   -1.0204 H         1 UNK         0.0949 
    101 H101       28.0425   21.6264   -2.0919 H         1 UNK         0.0767 
    102 H102       26.7321   22.0949   -3.1617 H         1 UNK         0.0767 
    103 H103       27.6173   23.3287   -2.2764 H         1 UNK         0.0767 
    104 H104       27.8081   22.8811    0.1550 H         1 UNK         0.3013 
    105 H105       29.2125   26.3294    1.9292 H         1 UNK         0.3121 
    106 H106       31.5246   27.6409    3.2568 H         1 UNK         0.0774 
    107 H107       29.2741   25.8775    4.3640 H         1 UNK         0.0815 
    108 H108       30.9268   25.3694    4.0190 H         1 UNK         0.0815 
    109 H109       30.6155   26.5381    5.2897 H         1 UNK         0.0815 
    110 H110       30.6600   29.6644    2.2449 H         1 UNK         0.2987 
    111 H111       28.1922   30.8501    3.1744 H         1 UNK         0.0949 
    112 H112       29.0476   32.8240    1.8670 H         1 UNK         0.0806 
    113 H113       30.5549   31.9621    1.5811 H         1 UNK         0.0806 
    114 H114       29.0419   31.3386    0.9338 H         1 UNK         0.0806 
    115 H115       28.9311   30.3026    5.4628 H         1 UNK         0.3010 
    116 H116       29.2385   30.9689    7.5585 H         1 UNK         0.0829 
    117 H117       28.8875   33.7977    6.4143 H         1 UNK         0.0813 
    118 H118       27.6347   32.7437    7.0501 H         1 UNK         0.0813 
    119 H119       28.8547   33.3918    8.1285 H         1 UNK         0.0813 
    120 H120       30.8792   33.9438    6.7706 H         1 UNK         0.3038 
    121 H121       33.3001   33.1309    8.1506 H         1 UNK         0.0769 
    122 H122       32.6068   35.6976    6.6185 H         1 UNK         0.0811 
    123 H123       34.0105   35.4705    7.6520 H         1 UNK         0.0811 
    124 H124       32.4013   35.4409    8.3523 H         1 UNK         0.0811 
    125 H125       32.2493   33.0808    4.8119 H         1 UNK         0.3204 
    126 H126       35.0340   32.7401    3.7821 H         1 UNK         0.0748 
    127 H127       33.9046   32.9604    1.5470 H         1 UNK         0.0771 
    128 H128       32.3570   33.1935    2.3497 H         1 UNK         0.0771 
    129 H129       33.6404   34.3805    2.5449 H         1 UNK         0.0771 
    130 H130       35.3503   30.8917    2.2913 H         1 UNK         0.2980 
    131 H131       33.4548   28.7256    2.3949 H         1 UNK         0.0545 
    132 H132       33.3338   28.0532    0.3051 H         1 UNK         0.3459 
    133 H133       34.6945   28.0180   -0.8022 H         1 UNK         0.3459 
    134 H134       35.2332   28.6469    4.5019 H         1 UNK         0.0616 
    135 H135       36.1887   27.7952    3.3328 H         1 UNK         0.0616 
    136 H136       35.5040   25.8386    2.0921 H         1 UNK         0.0634 
    137 H137       35.5938   24.7534    3.4585 H         1 UNK         0.0634 
@<TRIPOS>BOND
     1    1    2 1    
     2    1   72 1    
     3    1   73 1    
     4    1   74 1    
     5    2    3 2    
     6    2    4 am   BACKBONE|DICT|INTERRES
     7    4    5 1    
     8    4   75 1    
     9    5    6 1    
    10    5   35 1    
    11    5   76 1    
    12    6    7 1    
    13    6   77 1    
    14    6   78 1    
    15    7    8 1    
    16    8    9 1    
    17    8   79 1    
    18    8   80 1    
    19    9   10 ar   
    20    9   14 ar   
    21   10   11 ar   
    22   10   81 1    
    23   11   12 ar   
    24   11   71 1    
    25   12   13 ar   
    26   12   82 1    
    27   13   14 ar   
    28   13   15 1    
    29   14   83 1    
    30   15   16 1    
    31   15   84 1    
    32   15   85 1    
    33   16   17 1    
    34   17   18 1    
    35   17   86 1    
    36   17   87 1    
    37   18   19 1    
    38   18   37 1    
    39   18   88 1    
    40   19   20 am   BACKBONE|DICT|INTERRES
    41   19   89 1    
    42   20   21 2    
    43   20   22 1    
    44   22   23 1    
    45   22   24 1    
    46   22   90 1    
    47   23   91 1    
    48   23   92 1    
    49   23   93 1    
    50   24   25 am   BACKBONE|DICT|INTERRES
    51   24   94 1    
    52   25   26 2    
    53   25   27 1    
    54   27   28 1    
    55   27   29 1    
    56   27   95 1    
    57   28   96 1    
    58   28   97 1    
    59   28   98 1    
    60   29   30 am   BACKBONE|DICT|INTERRES
    61   29   99 1    
    62   30   31 2    
    63   30   32 1    
    64   32   33 1    
    65   32   34 1    
    66   32  100 1    
    67   33  101 1    
    68   33  102 1    
    69   33  103 1    
    70   34   35 am   BACKBONE|DICT|INTERRES
    71   34  104 1    
    72   35   36 2    
    73   37   38 2    
    74   37   39 am   BACKBONE|DICT|INTERRES
    75   39   40 1    
    76   39  105 1    
    77   40   41 1    
    78   40   42 1    
    79   40  106 1    
    80   41  107 1    
    81   41  108 1    
    82   41  109 1    
    83   42   43 2    
    84   42   44 am   BACKBONE|DICT|INTERRES
    85   44   45 1    
    86   44  110 1    
    87   45   46 1    
    88   45   47 1    
    89   45  111 1    
    90   46  112 1    
    91   46  113 1    
    92   46  114 1    
    93   47   48 2    
    94   47   49 am   BACKBONE|DICT|INTERRES
    95   49   50 1    
    96   49  115 1    
    97   50   51 1    
    98   50   52 1    
    99   50  116 1    
   100   51  117 1    
   101   51  118 1    
   102   51  119 1    
   103   52   53 2    
   104   52   54 am   BACKBONE|DICT|INTERRES
   105   54   55 1    
   106   54  120 1    
   107   55   56 1    
   108   55   57 1    
   109   55  121 1    
   110   56  122 1    
   111   56  123 1    
   112   56  124 1    
   113   57   58 2    
   114   57   59 am   BACKBONE|DICT|INTERRES
   115   59   60 1    
   116   59  125 1    
   117   60   61 1    
   118   60   62 1    
   119   60  126 1    
   120   61  127 1    
   121   61  128 1    
   122   61  129 1    
   123   62   63 2    
   124   62   64 am   BACKBONE|DICT|INTERRES
   125   64   65 1    
   126   64  130 1    
   127   65   66 1    
   128   65   69 1    
   129   65  131 1    
   130   66   67 am   BACKBONE|DICT|INTERRES
   131   66   68 2    
   132   67  132 1    
   133   67  133 1    
   134   69   70 1    
   135   69  134 1    
   136   69  135 1    
   137   70   71 1    
   138   71  136 1    
   139   71  137 1    
@<TRIPOS>SUBSTRUCTURE
     1 UNK         1 GROUP             0       ****    0 ROOT    
