@<TRIPOS>MOLECULE
3R136
137   139    1
SMALL
USER_CHARGES


@<TRIPOS>ATOM
      1 CA         31.2953   26.8268   -5.4906 C.3       0 UNK        -0.1979 
      2 C          30.6663   26.9186   -4.1082 C.2       0 UNK         0.4864 
      3 O          30.0236   27.9212   -3.7958 O.2       0 UNK        -0.5359 
      4 N          30.8531   25.8840   -3.2786 N.am      1 UNK        -0.4318 
      5 CA         30.2807   25.7764   -1.9354 C.3       1 UNK         0.0824 
      6 C6         31.0165   24.6974   -1.1053 C.3       12 UNK        -0.0944 
      7 S7         30.7860   24.9064    0.6887 S.3       12 UNK        -0.2672 
      8 C8         31.4193   23.2998    1.2562 C.3       12 UNK         0.0333 
      9 C9         31.5117   23.2549    2.7712 C.ar      12 UNK        -0.0807 
     10 C10        32.6805   23.6716    3.4147 C.ar      12 UNK        -0.0894 
     11 C11        32.7669   23.6546    4.8096 C.ar      12 UNK        -0.0804 
     12 C12        31.6711   23.2188    5.5602 C.ar      12 UNK        -0.0824 
     13 C13        30.4971   22.7960    4.9274 C.ar      12 UNK        -0.0762 
     14 C14        30.4290   22.8029    3.5306 C.ar      12 UNK        -0.0782 
     15 C15        29.3019   22.3496    5.7633 C.3       12 UNK         0.0230 
     16 S16        27.7697   23.2743    5.3959 S.3       12 UNK        -0.2608 
     17 C17        28.3320   25.0124    5.4166 C.3       12 UNK        -0.0989 
     18 CA         28.1601   25.6711    4.0169 C.3       5 UNK         0.0716 
     19 N          26.7615   25.8053    3.5872 N.am      5 UNK        -0.4135 
     20 C          25.7851   26.4849    4.2118 C.2       4 UNK         0.5031 
     21 O          25.9422   27.0812    5.2779 O.2       4 UNK        -0.5229 
     22 CA         24.3941   26.5470    3.5417 C.3       4 UNK         0.0329 
     23 CB         24.0162   28.0040    3.2200 C.3       4 UNK        -0.2001 
     24 N          24.2872   25.7610    2.3117 N.am      4 UNK        -0.4303 
     25 C          24.2269   24.4245    2.2331 C.2       3 UNK         0.5044 
     26 O          24.1195   23.6858    3.2116 O.2       3 UNK        -0.5152 
     27 CA         24.3474   23.8050    0.8246 C.3       3 UNK         0.0319 
     28 CB         22.9740   23.3210    0.3317 C.3       3 UNK        -0.2001 
     29 N          24.9340   24.6976   -0.1875 N.am      3 UNK        -0.4354 
     30 C          26.1626   25.2329   -0.1346 C.2       2 UNK         0.4964 
     31 O          26.9514   25.0452    0.7954 O.2       2 UNK        -0.5047 
     32 CA         26.5179   26.2196   -1.2564 C.3       2 UNK         0.0288 
     33 CB         25.9067   27.6000   -0.9593 C.3       2 UNK        -0.2113 
     34 N          27.9657   26.3682   -1.3832 N.am      2 UNK        -0.4145 
     35 C          28.7654   25.5066   -2.0208 C.2       1 UNK         0.5006 
     36 O          28.3575   24.5318   -2.6593 O.2       1 UNK        -0.5103 
     37 C          28.9183   27.0042    3.8621 C.2       5 UNK         0.5055 
     38 O          29.7216   27.3676    4.7223 O.2       5 UNK        -0.5220 
     39 N          28.6508   27.7128    2.7596 N.am      6 UNK        -0.4450 
     40 CA         29.2852   28.9754    2.4057 C.3       6 UNK         0.0367 
     41 CB         28.2548   30.1120    2.5044 C.3       6 UNK        -0.1929 
     42 C          29.8286   28.8505    0.9820 C.2       6 UNK         0.5070 
     43 O          29.0721   28.4822    0.0819 O.2       6 UNK        -0.5237 
     44 N          31.1136   29.1651    0.8071 N.am      7 UNK        -0.4739 
     45 CA         31.7956   29.2350   -0.4861 C.3       7 UNK         0.0276 
     46 CB         32.9652   28.2364   -0.5011 C.3       7 UNK        -0.1927 
     47 C          32.3003   30.6581   -0.7614 C.2       7 UNK         0.5013 
     48 O          32.2261   31.1119   -1.9036 O.2       7 UNK        -0.5193 
     49 N          32.7875   31.3437    0.2810 N.am      8 UNK        -0.4253 
     50 CA         33.2992   32.7122    0.2252 C.3       8 UNK         0.0242 
     51 CB         34.7084   32.7364   -0.4046 C.3       8 UNK        -0.2000 
     52 C          33.2755   33.2703    1.6505 C.2       8 UNK         0.4948 
     53 O          34.3299   33.4099    2.2736 O.2       8 UNK        -0.5275 
     54 N          32.0600   33.4761    2.1805 N.am      9 UNK        -0.4246 
     55 CA         31.7104   33.8083    3.5740 C.3       9 UNK         0.0261 
     56 CB         32.3485   35.1330    4.0380 C.3       9 UNK        -0.1959 
     57 C          32.0011   32.6599    4.5592 C.2       9 UNK         0.5033 
     58 O          31.1151   32.2796    5.3247 O.2       9 UNK        -0.5390 
     59 N          33.2117   32.0963    4.4813 N.am      10 UNK        -0.4215 
     60 CA         33.5863   30.7995    5.0404 C.3       10 UNK         0.0240 
     61 CB         35.1152   30.6591    4.9419 C.3       10 UNK        -0.1982 
     62 C          32.8889   29.6632    4.2585 C.2       10 UNK         0.4970 
     63 O          32.6280   29.8459    3.0652 O.2       10 UNK        -0.4916 
     64 N          32.6214   28.4967    4.8600 N.am      11 UNK        -0.4279 
     65 CA         32.9122   28.1084    6.2508 C.3       11 UNK         0.1003 
     66 C          31.9038   28.6786    7.2846 C.2       11 UNK         0.5709 
     67 N          30.6328   28.8286    6.9418 N.am      11 UNK        -0.7358 
     68 O          32.2907   29.0097    8.4022 O.2       11 UNK        -0.4999 
     69 C69        33.0232   26.5691    6.3917 C.3       12 UNK        -0.0954 
     70 S70        34.3481   25.8814    5.3439 S.3       12 UNK        -0.2268 
     71 C71        34.0494   24.0934    5.5033 C.3       12 UNK         0.0203 
     72 H72        31.9890   27.6534   -5.6423 H         1 UNK         0.0888 
     73 H73        31.8434   25.8949   -5.6290 H         1 UNK         0.0888 
     74 H74        30.5238   26.8836   -6.2580 H         1 UNK         0.0888 
     75 H75        31.3598   25.0736   -3.6049 H         1 UNK         0.3017 
     76 H76        30.4335   26.7386   -1.4455 H         1 UNK         0.0873 
     77 H77        30.7121   23.6921   -1.4045 H         1 UNK         0.0745 
     78 H78        32.0907   24.7542   -1.2903 H         1 UNK         0.0745 
     79 H79        30.7674   22.5038    0.8927 H         1 UNK         0.0705 
     80 H80        32.4025   23.1203    0.8181 H         1 UNK         0.0705 
     81 H81        33.5218   24.0200    2.8309 H         1 UNK         0.1334 
     82 H82        31.7321   23.2131    6.6400 H         1 UNK         0.1417 
     83 H83        29.5211   22.4834    3.0366 H         1 UNK         0.1562 
     84 H84        29.5161   22.4536    6.8281 H         1 UNK         0.0748 
     85 H85        29.1234   21.2877    5.5895 H         1 UNK         0.0748 
     86 H86        29.3727   25.0504    5.7402 H         1 UNK         0.0940 
     87 H87        27.7790   25.5550    6.1835 H         1 UNK         0.0940 
     88 H88        28.6264   25.0097    3.2854 H         1 UNK         0.0703 
     89 H89        26.5578   25.3800    2.6882 H         1 UNK         0.3081 
     90 H90        23.6725   26.1553    4.2617 H         1 UNK         0.0719 
     91 H91        24.7139   28.4557    2.5134 H         1 UNK         0.0809 
     92 H92        23.0146   28.0710    2.7950 H         1 UNK         0.0809 
     93 H93        24.0229   28.6194    4.1208 H         1 UNK         0.0809 
     94 H94        24.3537   26.2743    1.4457 H         1 UNK         0.2990 
     95 H95        25.0045   22.9374    0.9140 H         1 UNK         0.0690 
     96 H96        23.0558   22.7920   -0.6181 H         1 UNK         0.0788 
     97 H97        22.2779   24.1500    0.1975 H         1 UNK         0.0788 
     98 H98        22.5235   22.6300    1.0458 H         1 UNK         0.0788 
     99 H99        24.3435   24.9236   -0.9757 H         1 UNK         0.2993 
    100 H100       26.1141   25.8454   -2.1999 H         1 UNK         0.0949 
    101 H101       26.2600   28.0030   -0.0088 H         1 UNK         0.0767 
    102 H102       26.1621   28.3193   -1.7379 H         1 UNK         0.0767 
    103 H103       24.8182   27.5511   -0.9115 H         1 UNK         0.0767 
    104 H104       28.3870   27.1393   -0.8645 H         1 UNK         0.3013 
    105 H105       28.0476   27.3142    2.0527 H         1 UNK         0.3121 
    106 H106       30.1066   29.2000    3.0866 H         1 UNK         0.0774 
    107 H107       27.4095   29.9530    1.8335 H         1 UNK         0.0815 
    108 H108       28.7064   31.0698    2.2433 H         1 UNK         0.0815 
    109 H109       27.8650   30.2023    3.5185 H         1 UNK         0.0815 
    110 H110       31.6627   29.4189    1.6270 H         1 UNK         0.2987 
    111 H111       31.1094   28.9786   -1.2962 H         1 UNK         0.0949 
    112 H112       33.7061   28.4687    0.2651 H         1 UNK         0.0806 
    113 H113       32.6199   27.2179   -0.3279 H         1 UNK         0.0806 
    114 H114       33.4744   28.2471   -1.4657 H         1 UNK         0.0806 
    115 H115       32.8142   30.9023    1.1939 H         1 UNK         0.3010 
    116 H116       32.6327   33.3268   -0.3839 H         1 UNK         0.0829 
    117 H117       35.1216   33.7458   -0.3969 H         1 UNK         0.0813 
    118 H118       35.4032   32.0937    0.1374 H         1 UNK         0.0813 
    119 H119       34.6884   32.4051   -1.4428 H         1 UNK         0.0813 
    120 H120       31.2652   33.2922    1.5832 H         1 UNK         0.3038 
    121 H121       30.6288   33.9537    3.5768 H         1 UNK         0.0769 
    122 H122       33.4349   35.0698    4.1023 H         1 UNK         0.0811 
    123 H123       31.9844   35.4104    5.0281 H         1 UNK         0.0811 
    124 H124       32.1001   35.9503    3.3610 H         1 UNK         0.0811 
    125 H125       33.8403   32.4888    3.7828 H         1 UNK         0.3204 
    126 H126       33.2847   30.7917    6.0875 H         1 UNK         0.0748 
    127 H127       35.4594   29.7054    5.3423 H         1 UNK         0.0771 
    128 H128       35.4566   30.7150    3.9070 H         1 UNK         0.0771 
    129 H129       35.6211   31.4457    5.5022 H         1 UNK         0.0771 
    130 H130       32.1262   27.7929    4.3332 H         1 UNK         0.2980 
    131 H131       33.8876   28.5131    6.5209 H         1 UNK         0.0545 
    132 H132       29.9804   29.2145    7.6041 H         1 UNK         0.3459 
    133 H133       30.3003   28.4599    6.0526 H         1 UNK         0.3459 
    134 H134       32.0751   26.0976    6.1262 H         1 UNK         0.0616 
    135 H135       33.2339   26.2879    7.4253 H         1 UNK         0.0616 
    136 H136       34.8920   23.5580    5.0636 H         1 UNK         0.0634 
    137 H137       34.0353   23.8256    6.5609 H         1 UNK         0.0634 
@<TRIPOS>BOND
     1    1    2 1    
     2    1   72 1    
     3    1   73 1    
     4    1   74 1    
     5    2    3 2    
     6    2    4 am   BACKBONE|DICT|INTERRES
     7    4    5 1    
     8    4   75 1    
     9    5    6 1    
    10    5   35 1    
    11    5   76 1    
    12    6    7 1    
    13    6   77 1    
    14    6   78 1    
    15    7    8 1    
    16    8    9 1    
    17    8   79 1    
    18    8   80 1    
    19    9   10 ar   
    20    9   14 ar   
    21   10   11 ar   
    22   10   81 1    
    23   11   12 ar   
    24   11   71 1    
    25   12   13 ar   
    26   12   82 1    
    27   13   14 ar   
    28   13   15 1    
    29   14   83 1    
    30   15   16 1    
    31   15   84 1    
    32   15   85 1    
    33   16   17 1    
    34   17   18 1    
    35   17   86 1    
    36   17   87 1    
    37   18   19 1    
    38   18   37 1    
    39   18   88 1    
    40   19   20 am   BACKBONE|DICT|INTERRES
    41   19   89 1    
    42   20   21 2    
    43   20   22 1    
    44   22   23 1    
    45   22   24 1    
    46   22   90 1    
    47   23   91 1    
    48   23   92 1    
    49   23   93 1    
    50   24   25 am   BACKBONE|DICT|INTERRES
    51   24   94 1    
    52   25   26 2    
    53   25   27 1    
    54   27   28 1    
    55   27   29 1    
    56   27   95 1    
    57   28   96 1    
    58   28   97 1    
    59   28   98 1    
    60   29   30 am   BACKBONE|DICT|INTERRES
    61   29   99 1    
    62   30   31 2    
    63   30   32 1    
    64   32   33 1    
    65   32   34 1    
    66   32  100 1    
    67   33  101 1    
    68   33  102 1    
    69   33  103 1    
    70   34   35 am   BACKBONE|DICT|INTERRES
    71   34  104 1    
    72   35   36 2    
    73   37   38 2    
    74   37   39 am   BACKBONE|DICT|INTERRES
    75   39   40 1    
    76   39  105 1    
    77   40   41 1    
    78   40   42 1    
    79   40  106 1    
    80   41  107 1    
    81   41  108 1    
    82   41  109 1    
    83   42   43 2    
    84   42   44 am   BACKBONE|DICT|INTERRES
    85   44   45 1    
    86   44  110 1    
    87   45   46 1    
    88   45   47 1    
    89   45  111 1    
    90   46  112 1    
    91   46  113 1    
    92   46  114 1    
    93   47   48 2    
    94   47   49 am   BACKBONE|DICT|INTERRES
    95   49   50 1    
    96   49  115 1    
    97   50   51 1    
    98   50   52 1    
    99   50  116 1    
   100   51  117 1    
   101   51  118 1    
   102   51  119 1    
   103   52   53 2    
   104   52   54 am   BACKBONE|DICT|INTERRES
   105   54   55 1    
   106   54  120 1    
   107   55   56 1    
   108   55   57 1    
   109   55  121 1    
   110   56  122 1    
   111   56  123 1    
   112   56  124 1    
   113   57   58 2    
   114   57   59 am   BACKBONE|DICT|INTERRES
   115   59   60 1    
   116   59  125 1    
   117   60   61 1    
   118   60   62 1    
   119   60  126 1    
   120   61  127 1    
   121   61  128 1    
   122   61  129 1    
   123   62   63 2    
   124   62   64 am   BACKBONE|DICT|INTERRES
   125   64   65 1    
   126   64  130 1    
   127   65   66 1    
   128   65   69 1    
   129   65  131 1    
   130   66   67 am   BACKBONE|DICT|INTERRES
   131   66   68 2    
   132   67  132 1    
   133   67  133 1    
   134   69   70 1    
   135   69  134 1    
   136   69  135 1    
   137   70   71 1    
   138   71  136 1    
   139   71  137 1    
@<TRIPOS>SUBSTRUCTURE
     1 UNK         1 GROUP             0       ****    0 ROOT    
