@<TRIPOS>MOLECULE
3R136
137   139    1
SMALL
USER_CHARGES


@<TRIPOS>ATOM
      1 CA         30.4144   21.9766   -2.8803 C.3       0 UNK        -0.1979 
      2 C          29.4774   22.8888   -2.1041 C.2       0 UNK         0.4864 
      3 O          28.3650   23.1581   -2.5605 O.2       0 UNK        -0.5359 
      4 N          29.9006   23.3479   -0.9171 N.am      1 UNK        -0.4318 
      5 CA         29.1587   24.2813   -0.0558 C.3       1 UNK         0.0824 
      6 C6         30.0510   24.9260    1.0325 C.3       12 UNK        -0.0944 
      7 S7         30.9568   23.7359    2.0815 S.3       12 UNK        -0.2672 
      8 C8         29.8277   23.4972    3.4962 C.3       12 UNK         0.0333 
      9 C9         29.4756   24.7917    4.2201 C.ar      12 UNK        -0.0807 
     10 C10        30.4821   25.6102    4.7426 C.ar      12 UNK        -0.0894 
     11 C11        30.1599   26.7909    5.4187 C.ar      12 UNK        -0.0804 
     12 C12        28.8178   27.1477    5.5763 C.ar      12 UNK        -0.0824 
     13 C13        27.8011   26.3382    5.0609 C.ar      12 UNK        -0.0762 
     14 C14        28.1363   25.1625    4.3822 C.ar      12 UNK        -0.0782 
     15 C15        26.3411   26.7253    5.2624 C.3       12 UNK         0.0230 
     16 S16        25.4883   27.1316    3.7040 S.3       12 UNK        -0.2608 
     17 C17        26.4553   28.5498    3.0784 C.3       12 UNK        -0.0989 
     18 CA         27.0721   28.2556    1.6851 C.3       5 UNK         0.0716 
     19 N          26.0256   27.9567    0.6952 N.am      5 UNK        -0.4135 
     20 C          26.1890   27.2986   -0.4576 C.2       4 UNK         0.5031 
     21 O          27.2875   26.9897   -0.9255 O.2       4 UNK        -0.5229 
     22 CA         24.9251   26.9311   -1.2366 C.3       4 UNK         0.0329 
     23 CB         24.6905   27.9162   -2.3969 C.3       4 UNK        -0.2001 
     24 N          25.1104   25.5732   -1.7375 N.am      4 UNK        -0.4303 
     25 C          24.1505   24.7521   -2.1765 C.2       3 UNK         0.5044 
     26 O          22.9634   25.0665   -2.2697 O.2       3 UNK        -0.5152 
     27 CA         24.5901   23.3285   -2.5590 C.3       3 UNK         0.0319 
     28 CB         25.2310   23.3122   -3.9563 C.3       3 UNK        -0.2001 
     29 N          25.5200   22.7561   -1.5806 N.am      3 UNK        -0.4354 
     30 C          25.1516   22.3090   -0.3675 C.2       2 UNK         0.4964 
     31 O          23.9826   22.2739    0.0182 O.2       2 UNK        -0.5047 
     32 CA         26.2593   21.8139    0.5850 C.3       2 UNK         0.0288 
     33 CB         26.4043   20.2860    0.4981 C.3       2 UNK        -0.2113 
     34 N          27.5584   22.4341    0.3253 N.am      2 UNK        -0.4145 
     35 C          27.8325   23.7316    0.5201 C.2       1 UNK         0.5006 
     36 O          27.0644   24.4961    1.1034 O.2       1 UNK        -0.5103 
     37 C          28.0517   29.3654    1.2295 C.2       5 UNK         0.5055 
     38 O          28.3313   30.2942    1.9883 O.2       5 UNK        -0.5220 
     39 N          28.5847   29.2472    0.0069 N.am      6 UNK        -0.4450 
     40 CA         29.5499   30.1690   -0.6022 C.3       6 UNK         0.0367 
     41 CB         29.7310   29.7970   -2.0822 C.3       6 UNK        -0.1929 
     42 C          30.9122   30.2017    0.1155 C.2       6 UNK         0.5070 
     43 O          31.6219   31.2035    0.0264 O.2       6 UNK        -0.5237 
     44 N          31.2440   29.1189    0.8323 N.am      7 UNK        -0.4739 
     45 CA         32.4555   28.9802    1.6430 C.3       7 UNK         0.0276 
     46 CB         32.6388   27.5016    2.0226 C.3       7 UNK        -0.1927 
     47 C          32.4723   29.8558    2.9082 C.2       7 UNK         0.5013 
     48 O          33.5418   30.0078    3.4996 O.2       7 UNK        -0.5193 
     49 N          31.3184   30.4137    3.3128 N.am      8 UNK        -0.4253 
     50 CA         31.1099   31.1847    4.5491 C.3       8 UNK         0.0242 
     51 CB         29.6194   31.5343    4.6837 C.3       8 UNK        -0.2000 
     52 C          31.9874   32.4380    4.7317 C.2       8 UNK         0.4948 
     53 O          32.0386   32.9717    5.8403 O.2       8 UNK        -0.5275 
     54 N          32.6956   32.8612    3.6766 N.am      9 UNK        -0.4246 
     55 CA         33.7613   33.8629    3.7285 C.3       9 UNK         0.0261 
     56 CB         34.1858   34.2133    2.2929 C.3       9 UNK        -0.1959 
     57 C          34.9875   33.4277    4.5604 C.2       9 UNK         0.5033 
     58 O          35.7318   34.3028    5.0066 O.2       9 UNK        -0.5390 
     59 N          35.1870   32.1143    4.7565 N.am      10 UNK        -0.4215 
     60 CA         36.2880   31.5585    5.5504 C.3       10 UNK         0.0240 
     61 CB         37.5126   31.3095    4.6515 C.3       10 UNK        -0.1982 
     62 C          35.8950   30.2803    6.3063 C.2       10 UNK         0.4970 
     63 O          36.2790   30.1329    7.4668 O.2       10 UNK        -0.4916 
     64 N          35.1565   29.3791    5.6448 N.am      11 UNK        -0.4279 
     65 CA         34.7259   28.0633    6.1474 C.3       11 UNK         0.1003 
     66 C          35.8819   27.0638    6.4678 C.2       11 UNK         0.5709 
     67 N          37.0683   27.2341    5.8955 N.am      11 UNK        -0.7358 
     68 O          35.7049   26.1078    7.2191 O.2       11 UNK        -0.4999 
     69 C69        33.6518   28.1835    7.2704 C.3       12 UNK        -0.0954 
     70 S70        32.3601   26.9007    7.1350 S.3       12 UNK        -0.2268 
     71 C71        31.2569   27.7081    5.9368 C.3       12 UNK         0.0203 
     72 H72        29.9412   21.0100   -3.0508 H         1 UNK         0.0888 
     73 H73        30.6470   22.4178   -3.8491 H         1 UNK         0.0888 
     74 H74        31.3515   21.8081   -2.3500 H         1 UNK         0.0888 
     75 H75        30.8096   23.0746   -0.5692 H         1 UNK         0.3017 
     76 H76        28.8571   25.0924   -0.7174 H         1 UNK         0.0873 
     77 H77        29.4793   25.6196    1.6507 H         1 UNK         0.0745 
     78 H78        30.8013   25.5449    0.5398 H         1 UNK         0.0745 
     79 H79        28.9277   22.9883    3.1491 H         1 UNK         0.0705 
     80 H80        30.3020   22.8195    4.2070 H         1 UNK         0.0705 
     81 H81        31.5194   25.3311    4.6156 H         1 UNK         0.1334 
     82 H82        28.5632   28.0606    6.0974 H         1 UNK         0.1417 
     83 H83        27.3489   24.5401    3.9779 H         1 UNK         0.1562 
     84 H84        26.2527   27.5732    5.9436 H         1 UNK         0.0748 
     85 H85        25.8181   25.8964    5.7414 H         1 UNK         0.0748 
     86 H86        27.2336   28.7970    3.8020 H         1 UNK         0.0940 
     87 H87        25.8034   29.4242    3.0333 H         1 UNK         0.0940 
     88 H88        27.6808   27.3547    1.7906 H         1 UNK         0.0703 
     89 H89        25.0867   28.1896    0.9836 H         1 UNK         0.3081 
     90 H90        24.0674   26.9449   -0.5607 H         1 UNK         0.0719 
     91 H91        25.5206   27.9074   -3.1046 H         1 UNK         0.0809 
     92 H92        23.7801   27.6777   -2.9468 H         1 UNK         0.0809 
     93 H93        24.5860   28.9372   -2.0276 H         1 UNK         0.0809 
     94 H94        26.0635   25.2370   -1.6782 H         1 UNK         0.2990 
     95 H95        23.6970   22.7005   -2.5937 H         1 UNK         0.0690 
     96 H96        25.4995   22.2994   -4.2572 H         1 UNK         0.0788 
     97 H97        26.1341   23.9227   -3.9965 H         1 UNK         0.0788 
     98 H98        24.5407   23.7015   -4.7059 H         1 UNK         0.0788 
     99 H99        26.5041   22.7624   -1.8325 H         1 UNK         0.2993 
    100 H100       25.9568   22.0749    1.6018 H         1 UNK         0.0949 
    101 H101       25.4562   19.7917    0.7154 H         1 UNK         0.0767 
    102 H102       26.7188   19.9656   -0.4961 H         1 UNK         0.0767 
    103 H103       27.1337   19.9148    1.2185 H         1 UNK         0.0767 
    104 H104       28.2465   21.8726   -0.1543 H         1 UNK         0.3013 
    105 H105       28.2896   28.4438   -0.5470 H         1 UNK         0.3121 
    106 H106       29.1298   31.1756   -0.5479 H         1 UNK         0.0774 
    107 H107       30.4247   30.4797   -2.5750 H         1 UNK         0.0815 
    108 H108       30.1273   28.7874   -2.1987 H         1 UNK         0.0815 
    109 H109       28.7860   29.8507   -2.6233 H         1 UNK         0.0815 
    110 H110       30.5993   28.3427    0.8384 H         1 UNK         0.2987 
    111 H111       33.3094   29.2868    1.0348 H         1 UNK         0.0949 
    112 H112       31.7847   27.1180    2.5814 H         1 UNK         0.0806 
    113 H113       32.7698   26.8791    1.1376 H         1 UNK         0.0806 
    114 H114       33.5243   27.3599    2.6441 H         1 UNK         0.0806 
    115 H115       30.4937   30.2622    2.7446 H         1 UNK         0.3010 
    116 H116       31.3760   30.5302    5.3781 H         1 UNK         0.0829 
    117 H117       29.0016   30.6362    4.7012 H         1 UNK         0.0813 
    118 H118       29.4220   32.0774    5.6090 H         1 UNK         0.0813 
    119 H119       29.2784   32.1601    3.8581 H         1 UNK         0.0813 
    120 H120       32.5802   32.3657    2.8038 H         1 UNK         0.3038 
    121 H121       33.3528   34.7615    4.1957 H         1 UNK         0.0769 
    122 H122       33.3472   34.5994    1.7131 H         1 UNK         0.0811 
    123 H123       34.5871   33.3455    1.7675 H         1 UNK         0.0811 
    124 H124       34.9599   34.9821    2.2911 H         1 UNK         0.0811 
    125 H125       34.5244   31.4559    4.3559 H         1 UNK         0.3204 
    126 H126       36.5733   32.2841    6.3157 H         1 UNK         0.0748 
    127 H127       37.8768   32.2395    4.2144 H         1 UNK         0.0771 
    128 H128       38.3364   30.8766    5.2209 H         1 UNK         0.0771 
    129 H129       37.2810   30.6253    3.8344 H         1 UNK         0.0771 
    130 H130       34.8365   29.5890    4.7033 H         1 UNK         0.2980 
    131 H131       34.2418   27.6191    5.2773 H         1 UNK         0.0545 
    132 H132       37.8105   26.5832    6.0980 H         1 UNK         0.3459 
    133 H133       37.2287   28.0045    5.2673 H         1 UNK         0.3459 
    134 H134       34.1083   28.1325    8.2603 H         1 UNK         0.0616 
    135 H135       33.1575   29.1557    7.2290 H         1 UNK         0.0616 
    136 H136       30.8248   28.5884    6.4133 H         1 UNK         0.0634 
    137 H137       31.8436   28.0580    5.0890 H         1 UNK         0.0634 
@<TRIPOS>BOND
     1    1    2 1    
     2    1   72 1    
     3    1   73 1    
     4    1   74 1    
     5    2    3 2    
     6    2    4 am   BACKBONE|DICT|INTERRES
     7    4    5 1    
     8    4   75 1    
     9    5    6 1    
    10    5   35 1    
    11    5   76 1    
    12    6    7 1    
    13    6   77 1    
    14    6   78 1    
    15    7    8 1    
    16    8    9 1    
    17    8   79 1    
    18    8   80 1    
    19    9   10 ar   
    20    9   14 ar   
    21   10   11 ar   
    22   10   81 1    
    23   11   12 ar   
    24   11   71 1    
    25   12   13 ar   
    26   12   82 1    
    27   13   14 ar   
    28   13   15 1    
    29   14   83 1    
    30   15   16 1    
    31   15   84 1    
    32   15   85 1    
    33   16   17 1    
    34   17   18 1    
    35   17   86 1    
    36   17   87 1    
    37   18   19 1    
    38   18   37 1    
    39   18   88 1    
    40   19   20 am   BACKBONE|DICT|INTERRES
    41   19   89 1    
    42   20   21 2    
    43   20   22 1    
    44   22   23 1    
    45   22   24 1    
    46   22   90 1    
    47   23   91 1    
    48   23   92 1    
    49   23   93 1    
    50   24   25 am   BACKBONE|DICT|INTERRES
    51   24   94 1    
    52   25   26 2    
    53   25   27 1    
    54   27   28 1    
    55   27   29 1    
    56   27   95 1    
    57   28   96 1    
    58   28   97 1    
    59   28   98 1    
    60   29   30 am   BACKBONE|DICT|INTERRES
    61   29   99 1    
    62   30   31 2    
    63   30   32 1    
    64   32   33 1    
    65   32   34 1    
    66   32  100 1    
    67   33  101 1    
    68   33  102 1    
    69   33  103 1    
    70   34   35 am   BACKBONE|DICT|INTERRES
    71   34  104 1    
    72   35   36 2    
    73   37   38 2    
    74   37   39 am   BACKBONE|DICT|INTERRES
    75   39   40 1    
    76   39  105 1    
    77   40   41 1    
    78   40   42 1    
    79   40  106 1    
    80   41  107 1    
    81   41  108 1    
    82   41  109 1    
    83   42   43 2    
    84   42   44 am   BACKBONE|DICT|INTERRES
    85   44   45 1    
    86   44  110 1    
    87   45   46 1    
    88   45   47 1    
    89   45  111 1    
    90   46  112 1    
    91   46  113 1    
    92   46  114 1    
    93   47   48 2    
    94   47   49 am   BACKBONE|DICT|INTERRES
    95   49   50 1    
    96   49  115 1    
    97   50   51 1    
    98   50   52 1    
    99   50  116 1    
   100   51  117 1    
   101   51  118 1    
   102   51  119 1    
   103   52   53 2    
   104   52   54 am   BACKBONE|DICT|INTERRES
   105   54   55 1    
   106   54  120 1    
   107   55   56 1    
   108   55   57 1    
   109   55  121 1    
   110   56  122 1    
   111   56  123 1    
   112   56  124 1    
   113   57   58 2    
   114   57   59 am   BACKBONE|DICT|INTERRES
   115   59   60 1    
   116   59  125 1    
   117   60   61 1    
   118   60   62 1    
   119   60  126 1    
   120   61  127 1    
   121   61  128 1    
   122   61  129 1    
   123   62   63 2    
   124   62   64 am   BACKBONE|DICT|INTERRES
   125   64   65 1    
   126   64  130 1    
   127   65   66 1    
   128   65   69 1    
   129   65  131 1    
   130   66   67 am   BACKBONE|DICT|INTERRES
   131   66   68 2    
   132   67  132 1    
   133   67  133 1    
   134   69   70 1    
   135   69  134 1    
   136   69  135 1    
   137   70   71 1    
   138   71  136 1    
   139   71  137 1    
@<TRIPOS>SUBSTRUCTURE
     1 UNK         1 GROUP             0       ****    0 ROOT    
