@<TRIPOS>MOLECULE
3R136
137   139    1
SMALL
USER_CHARGES


@<TRIPOS>ATOM
      1 CA         30.2659   23.2714   -5.5231 C.3       0 UNK        -0.1979 
      2 C          29.9093   24.1049   -4.3015 C.2       0 UNK         0.4864 
      3 O          29.7448   25.3211   -4.4152 O.2       0 UNK        -0.5359 
      4 N          29.7754   23.4640   -3.1322 N.am      1 UNK        -0.4318 
      5 CA         29.4304   24.0912   -1.8506 C.3       1 UNK         0.0824 
      6 C6         29.9926   23.2622   -0.6600 C.3       12 UNK        -0.0944 
      7 S7         30.4613   24.3238    0.7405 S.3       12 UNK        -0.2672 
      8 C8         31.0101   23.0955    1.9632 C.3       12 UNK         0.0333 
      9 C9         31.4471   23.7627    3.2619 C.ar      12 UNK        -0.0807 
     10 C10        32.8039   23.9753    3.5329 C.ar      12 UNK        -0.0894 
     11 C11        33.2033   24.5641    4.7384 C.ar      12 UNK        -0.0804 
     12 C12        32.2325   24.9348    5.6725 C.ar      12 UNK        -0.0824 
     13 C13        30.8722   24.7701    5.3998 C.ar      12 UNK        -0.0762 
     14 C14        30.4894   24.1648    4.1989 C.ar      12 UNK        -0.0782 
     15 C15        29.8347   25.2351    6.4172 C.3       12 UNK         0.0230 
     16 S16        29.9932   27.0198    6.7735 S.3       12 UNK        -0.2608 
     17 C17        28.4978   27.7659    6.0392 C.3       12 UNK        -0.0989 
     18 CA         28.5156   27.7734    4.4857 C.3       5 UNK         0.0716 
     19 N          27.8398   26.5850    3.9552 N.am      5 UNK        -0.4135 
     20 C          27.8314   26.1731    2.6824 C.2       4 UNK         0.5031 
     21 O          28.3739   26.7905    1.7634 O.2       4 UNK        -0.5229 
     22 CA         27.0697   24.8652    2.3868 C.3       4 UNK         0.0329 
     23 CB         26.4921   24.1522    3.6356 C.3       4 UNK        -0.2001 
     24 N          26.0083   25.0606    1.4001 N.am      4 UNK        -0.4303 
     25 C          24.9508   25.8819    1.4972 C.2       3 UNK         0.5044 
     26 O          24.7723   26.6601    2.4373 O.2       3 UNK        -0.5152 
     27 CA         23.9075   25.7801    0.3624 C.3       3 UNK         0.0319 
     28 CB         22.9543   26.9919    0.2769 C.3       3 UNK        -0.2001 
     29 N          24.5063   25.4782   -0.9439 N.am      3 UNK        -0.4354 
     30 C          25.4074   26.2267   -1.5955 C.2       2 UNK         0.4964 
     31 O          25.7814   27.3389   -1.2244 O.2       2 UNK        -0.5047 
     32 CA         26.0174   25.6038   -2.8618 C.3       2 UNK         0.0288 
     33 CB         25.9046   26.5586   -4.0625 C.3       2 UNK        -0.2113 
     34 N          27.4228   25.2357   -2.6731 N.am      2 UNK        -0.4145 
     35 C          27.9081   24.3672   -1.7730 C.2       1 UNK         0.5006 
     36 O          27.2002   23.7625   -0.9632 O.2       1 UNK        -0.5103 
     37 C          27.9923   29.1092    3.9019 C.2       5 UNK         0.5055 
     38 O          28.6415   30.1351    4.1058 O.2       5 UNK        -0.5220 
     39 N          26.8647   29.0963    3.1715 N.am      6 UNK        -0.4450 
     40 CA         26.4044   30.2291    2.3642 C.3       6 UNK         0.0367 
     41 CB         24.9766   29.9639    1.8680 C.3       6 UNK        -0.1929 
     42 C          27.3395   30.5193    1.1742 C.2       6 UNK         0.5070 
     43 O          27.5436   31.6882    0.8456 O.2       6 UNK        -0.5237 
     44 N          27.9040   29.4647    0.5669 N.am      7 UNK        -0.4739 
     45 CA         28.9477   29.5668   -0.4528 C.3       7 UNK         0.0276 
     46 CB         28.8742   28.3735   -1.4204 C.3       7 UNK        -0.1927 
     47 C          30.3262   29.6417    0.2094 C.2       7 UNK         0.5013 
     48 O          31.0922   30.5620   -0.0803 O.2       7 UNK        -0.5193 
     49 N          30.6130   28.6932    1.1115 N.am      8 UNK        -0.4253 
     50 CA         31.8827   28.5892    1.8347 C.3       8 UNK         0.0242 
     51 CB         32.1166   27.1272    2.2401 C.3       8 UNK        -0.2000 
     52 C          31.9719   29.5580    3.0276 C.2       8 UNK         0.4948 
     53 O          32.2892   29.1407    4.1412 O.2       8 UNK        -0.5275 
     54 N          31.7335   30.8513    2.7717 N.am      9 UNK        -0.4246 
     55 CA         31.8041   31.9320    3.7620 C.3       9 UNK         0.0261 
     56 CB         31.3284   33.2434    3.1183 C.3       9 UNK        -0.1959 
     57 C          33.2034   32.1025    4.3833 C.2       9 UNK         0.5033 
     58 O          33.3097   32.5093    5.5412 O.2       9 UNK        -0.5390 
     59 N          34.2463   31.7384    3.6222 N.am      10 UNK        -0.4215 
     60 CA         35.6455   31.6909    4.0529 C.3       10 UNK         0.0240 
     61 CB         36.5338   31.3773    2.8377 C.3       10 UNK        -0.1982 
     62 C          35.9231   30.6907    5.1926 C.2       10 UNK         0.4970 
     63 O          36.9088   30.8734    5.9085 O.2       10 UNK        -0.4916 
     64 N          35.0645   29.6738    5.3572 N.am      11 UNK        -0.4279 
     65 CA         35.1063   28.7362    6.4893 C.3       11 UNK         0.1003 
     66 C          34.5392   29.3290    7.8146 C.2       11 UNK         0.5709 
     67 N          33.9295   30.5105    7.8238 N.am      11 UNK        -0.7358 
     68 O          34.6717   28.7077    8.8665 O.2       11 UNK        -0.4999 
     69 C69        34.4246   27.3858    6.1483 C.3       12 UNK        -0.0954 
     70 S70        35.1955   26.5152    4.7402 S.3       12 UNK        -0.2268 
     71 C71        34.6795   24.7913    5.0430 C.3       12 UNK         0.0203 
     72 H72        30.3827   22.2161   -5.2772 H         1 UNK         0.0888 
     73 H73        29.4852   23.3599   -6.2780 H         1 UNK         0.0888 
     74 H74        31.2013   23.6240   -5.9567 H         1 UNK         0.0888 
     75 H75        29.8868   22.4601   -3.1079 H         1 UNK         0.3017 
     76 H76        29.9211   25.0676   -1.8323 H         1 UNK         0.0873 
     77 H77        29.3030   22.4835   -0.3291 H         1 UNK         0.0745 
     78 H78        30.9022   22.7402   -0.9621 H         1 UNK         0.0745 
     79 H79        30.1971   22.3958    2.1631 H         1 UNK         0.0705 
     80 H80        31.8282   22.5088    1.5424 H         1 UNK         0.0705 
     81 H81        33.5488   23.6811    2.8063 H         1 UNK         0.1334 
     82 H82        32.5315   25.3792    6.6109 H         1 UNK         0.1417 
     83 H83        29.4463   24.0037    3.9833 H         1 UNK         0.1562 
     84 H84        29.9860   24.6820    7.3451 H         1 UNK         0.0748 
     85 H85        28.8220   25.0021    6.0889 H         1 UNK         0.0748 
     86 H86        28.4574   28.7810    6.4405 H         1 UNK         0.0940 
     87 H87        27.6077   27.2730    6.4342 H         1 UNK         0.0940 
     88 H88        29.5539   27.7174    4.1525 H         1 UNK         0.0703 
     89 H89        27.3151   26.0410    4.6229 H         1 UNK         0.3081 
     90 H90        27.7902   24.1897    1.9259 H         1 UNK         0.0719 
     91 H91        25.7337   24.7505    4.1421 H         1 UNK         0.0809 
     92 H92        26.0216   23.2097    3.3549 H         1 UNK         0.0809 
     93 H93        27.2612   23.9063    4.3662 H         1 UNK         0.0809 
     94 H94        26.1257   24.5291    0.5424 H         1 UNK         0.2990 
     95 H95        23.2960   24.9137    0.6185 H         1 UNK         0.0690 
     96 H96        22.1503   26.8066   -0.4352 H         1 UNK         0.0788 
     97 H97        23.4683   27.8986   -0.0381 H         1 UNK         0.0788 
     98 H98        22.4873   27.1981    1.2408 H         1 UNK         0.0788 
     99 H99        24.2805   24.5686   -1.3234 H         1 UNK         0.2993 
    100 H100       25.4693   24.6915   -3.1057 H         1 UNK         0.0949 
    101 H101       24.8669   26.8473   -4.2353 H         1 UNK         0.0767 
    102 H102       26.4762   27.4744   -3.9057 H         1 UNK         0.0767 
    103 H103       26.2679   26.0903   -4.9776 H         1 UNK         0.0767 
    104 H104       28.0894   25.6375   -3.3250 H         1 UNK         0.3013 
    105 H105       26.3653   28.2229    3.0528 H         1 UNK         0.3121 
    106 H106       26.3859   31.1151    3.0026 H         1 UNK         0.0774 
    107 H107       24.5831   30.8281    1.3314 H         1 UNK         0.0815 
    108 H108       24.9516   29.1171    1.1832 H         1 UNK         0.0815 
    109 H109       24.2961   29.7520    2.6928 H         1 UNK         0.0815 
    110 H110       27.7100   28.5322    0.9174 H         1 UNK         0.2987 
    111 H111       28.8070   30.4796   -1.0361 H         1 UNK         0.0949 
    112 H112       28.8556   27.4188   -0.8934 H         1 UNK         0.0806 
    113 H113       27.9812   28.4314   -2.0410 H         1 UNK         0.0806 
    114 H114       29.7298   28.3591   -2.0970 H         1 UNK         0.0806 
    115 H115       29.9094   27.9883    1.3156 H         1 UNK         0.3010 
    116 H116       32.6933   28.8634    1.1561 H         1 UNK         0.0829 
    117 H117       32.2162   26.4914    1.3622 H         1 UNK         0.0813 
    118 H118       33.0372   27.0159    2.8120 H         1 UNK         0.0813 
    119 H119       31.3037   26.7383    2.8532 H         1 UNK         0.0813 
    120 H120       31.4813   31.1019    1.8206 H         1 UNK         0.3038 
    121 H121       31.1167   31.6770    4.5717 H         1 UNK         0.0769 
    122 H122       31.9602   33.5349    2.2783 H         1 UNK         0.0811 
    123 H123       31.3457   34.0610    3.8404 H         1 UNK         0.0811 
    124 H124       30.3041   33.1554    2.7545 H         1 UNK         0.0811 
    125 H125       34.0514   31.4209    2.6840 H         1 UNK         0.3204 
    126 H126       35.9083   32.6837    4.4240 H         1 UNK         0.0748 
    127 H127       36.4162   32.1265    2.0544 H         1 UNK         0.0771 
    128 H128       37.5885   31.3678    3.1170 H         1 UNK         0.0771 
    129 H129       36.3020   30.4012    2.4093 H         1 UNK         0.0771 
    130 H130       34.2513   29.5923    4.7574 H         1 UNK         0.2980 
    131 H131       36.1553   28.5161    6.6961 H         1 UNK         0.0545 
    132 H132       33.5787   30.8719    8.6960 H         1 UNK         0.3459 
    133 H133       33.8106   31.0488    6.9741 H         1 UNK         0.3459 
    134 H134       33.3679   27.5412    5.9267 H         1 UNK         0.0616 
    135 H135       34.4652   26.7214    7.0131 H         1 UNK         0.0616 
    136 H136       35.2924   24.1349    4.4237 H         1 UNK         0.0634 
    137 H137       34.8956   24.5183    6.0769 H         1 UNK         0.0634 
@<TRIPOS>BOND
     1    1    2 1    
     2    1   72 1    
     3    1   73 1    
     4    1   74 1    
     5    2    3 2    
     6    2    4 am   BACKBONE|DICT|INTERRES
     7    4    5 1    
     8    4   75 1    
     9    5    6 1    
    10    5   35 1    
    11    5   76 1    
    12    6    7 1    
    13    6   77 1    
    14    6   78 1    
    15    7    8 1    
    16    8    9 1    
    17    8   79 1    
    18    8   80 1    
    19    9   10 ar   
    20    9   14 ar   
    21   10   11 ar   
    22   10   81 1    
    23   11   12 ar   
    24   11   71 1    
    25   12   13 ar   
    26   12   82 1    
    27   13   14 ar   
    28   13   15 1    
    29   14   83 1    
    30   15   16 1    
    31   15   84 1    
    32   15   85 1    
    33   16   17 1    
    34   17   18 1    
    35   17   86 1    
    36   17   87 1    
    37   18   19 1    
    38   18   37 1    
    39   18   88 1    
    40   19   20 am   BACKBONE|DICT|INTERRES
    41   19   89 1    
    42   20   21 2    
    43   20   22 1    
    44   22   23 1    
    45   22   24 1    
    46   22   90 1    
    47   23   91 1    
    48   23   92 1    
    49   23   93 1    
    50   24   25 am   BACKBONE|DICT|INTERRES
    51   24   94 1    
    52   25   26 2    
    53   25   27 1    
    54   27   28 1    
    55   27   29 1    
    56   27   95 1    
    57   28   96 1    
    58   28   97 1    
    59   28   98 1    
    60   29   30 am   BACKBONE|DICT|INTERRES
    61   29   99 1    
    62   30   31 2    
    63   30   32 1    
    64   32   33 1    
    65   32   34 1    
    66   32  100 1    
    67   33  101 1    
    68   33  102 1    
    69   33  103 1    
    70   34   35 am   BACKBONE|DICT|INTERRES
    71   34  104 1    
    72   35   36 2    
    73   37   38 2    
    74   37   39 am   BACKBONE|DICT|INTERRES
    75   39   40 1    
    76   39  105 1    
    77   40   41 1    
    78   40   42 1    
    79   40  106 1    
    80   41  107 1    
    81   41  108 1    
    82   41  109 1    
    83   42   43 2    
    84   42   44 am   BACKBONE|DICT|INTERRES
    85   44   45 1    
    86   44  110 1    
    87   45   46 1    
    88   45   47 1    
    89   45  111 1    
    90   46  112 1    
    91   46  113 1    
    92   46  114 1    
    93   47   48 2    
    94   47   49 am   BACKBONE|DICT|INTERRES
    95   49   50 1    
    96   49  115 1    
    97   50   51 1    
    98   50   52 1    
    99   50  116 1    
   100   51  117 1    
   101   51  118 1    
   102   51  119 1    
   103   52   53 2    
   104   52   54 am   BACKBONE|DICT|INTERRES
   105   54   55 1    
   106   54  120 1    
   107   55   56 1    
   108   55   57 1    
   109   55  121 1    
   110   56  122 1    
   111   56  123 1    
   112   56  124 1    
   113   57   58 2    
   114   57   59 am   BACKBONE|DICT|INTERRES
   115   59   60 1    
   116   59  125 1    
   117   60   61 1    
   118   60   62 1    
   119   60  126 1    
   120   61  127 1    
   121   61  128 1    
   122   61  129 1    
   123   62   63 2    
   124   62   64 am   BACKBONE|DICT|INTERRES
   125   64   65 1    
   126   64  130 1    
   127   65   66 1    
   128   65   69 1    
   129   65  131 1    
   130   66   67 am   BACKBONE|DICT|INTERRES
   131   66   68 2    
   132   67  132 1    
   133   67  133 1    
   134   69   70 1    
   135   69  134 1    
   136   69  135 1    
   137   70   71 1    
   138   71  136 1    
   139   71  137 1    
@<TRIPOS>SUBSTRUCTURE
     1 UNK         1 GROUP             0       ****    0 ROOT    
