@<TRIPOS>MOLECULE
3R136
137   139    1
SMALL
USER_CHARGES


@<TRIPOS>ATOM
      1 CA         28.9918   27.4006    8.0265 C.3       0 UNK        -0.1979 
      2 C          28.5431   26.7397    6.7317 C.2       0 UNK         0.4864 
      3 O          27.5084   26.0729    6.7158 O.2       0 UNK        -0.5359 
      4 N          29.3004   26.9465    5.6505 N.am      1 UNK        -0.4318 
      5 CA         29.0666   26.4201    4.3066 C.3       1 UNK         0.0824 
      6 C6         29.0261   24.8666    4.2160 C.3       12 UNK        -0.0944 
      7 S7         30.4150   24.0029    5.0394 S.3       12 UNK        -0.2672 
      8 C8         30.4525   22.4243    4.1415 C.3       12 UNK         0.0333 
      9 C9         30.8826   22.5813    2.6890 C.ar      12 UNK        -0.0807 
     10 C10        32.2267   22.8045    2.3702 C.ar      12 UNK        -0.0894 
     11 C11        32.6423   22.8519    1.0355 C.ar      12 UNK        -0.0804 
     12 C12        31.6927   22.6990    0.0170 C.ar      12 UNK        -0.0824 
     13 C13        30.3441   22.4775    0.3239 C.ar      12 UNK        -0.0762 
     14 C14        29.9457   22.4292    1.6620 C.ar      12 UNK        -0.0782 
     15 C15        29.3371   22.1837   -0.7823 C.3       12 UNK         0.0230 
     16 S16        28.7275   23.6805   -1.6175 S.3       12 UNK        -0.2608 
     17 C17        27.3785   24.2751   -0.5278 C.3       12 UNK        -0.0989 
     18 CA         27.6879   25.6671    0.0867 C.3       5 UNK         0.0716 
     19 N          28.1381   26.6667   -0.8931 N.am      5 UNK        -0.4135 
     20 C          27.5058   27.1153   -1.9876 C.2       4 UNK         0.5031 
     21 O          26.3657   26.7722   -2.2998 O.2       4 UNK        -0.5229 
     22 CA         28.2374   28.1581   -2.8617 C.3       4 UNK         0.0329 
     23 CB         27.4277   29.4650   -2.9319 C.3       4 UNK        -0.2001 
     24 N          29.5852   28.4729   -2.3777 N.am      4 UNK        -0.4303 
     25 C          30.6983   27.7785   -2.6582 C.2       3 UNK         0.5044 
     26 O          30.7478   26.8612   -3.4770 O.2       3 UNK        -0.5152 
     27 CA         31.9619   28.1471   -1.8501 C.3       3 UNK         0.0319 
     28 CB         32.8370   29.1398   -2.6306 C.3       3 UNK        -0.2001 
     29 N          31.6660   28.7009   -0.5202 N.am      3 UNK        -0.4354 
     30 C          31.0145   28.0354    0.4441 C.2       2 UNK         0.4964 
     31 O          30.6682   26.8631    0.3195 O.2       2 UNK        -0.5047 
     32 CA         30.6455   28.8226    1.7133 C.3       2 UNK         0.0288 
     33 CB         29.9353   30.1416    1.3526 C.3       2 UNK        -0.2113 
     34 N          29.7681   28.0668    2.6144 N.am      2 UNK        -0.4145 
     35 C          30.1376   27.0464    3.3975 C.2       1 UNK         0.5006 
     36 O          31.2953   26.6464    3.4710 O.2       1 UNK        -0.5103 
     37 C          26.5841   26.1796    1.0431 C.2       5 UNK         0.5055 
     38 O          26.2340   25.4668    1.9844 O.2       5 UNK        -0.5220 
     39 N          26.0968   27.4133    0.8404 N.am      6 UNK        -0.4450 
     40 CA         25.2260   28.1518    1.7595 C.3       6 UNK         0.0367 
     41 CB         24.5649   29.3093    0.9951 C.3       6 UNK        -0.1929 
     42 C          26.0392   28.6962    2.9437 C.2       6 UNK         0.5070 
     43 O          27.2307   28.9651    2.7836 O.2       6 UNK        -0.5237 
     44 N          25.4042   28.8626    4.1087 N.am      7 UNK        -0.4739 
     45 CA         26.0516   29.2085    5.3817 C.3       7 UNK         0.0276 
     46 CB         25.1253   28.7890    6.5385 C.3       7 UNK        -0.1927 
     47 C          26.5207   30.6757    5.4961 C.2       7 UNK         0.5013 
     48 O          26.0924   31.3850    6.4085 O.2       7 UNK        -0.5193 
     49 N          27.3907   31.1026    4.5734 N.am      8 UNK        -0.4253 
     50 CA         27.9412   32.4594    4.4945 C.3       8 UNK         0.0242 
     51 CB         27.6195   33.0369    3.1042 C.3       8 UNK        -0.2000 
     52 C          29.4552   32.5373    4.7733 C.2       8 UNK         0.4948 
     53 O          29.9568   33.6482    4.9524 O.2       8 UNK        -0.5275 
     54 N          30.1668   31.4009    4.7967 N.am      9 UNK        -0.4246 
     55 CA         31.6215   31.3068    4.9671 C.3       9 UNK         0.0261 
     56 CB         32.3616   31.8504    3.7206 C.3       9 UNK        -0.1959 
     57 C          32.0031   29.8527    5.2967 C.2       9 UNK         0.5033 
     58 O          31.1295   29.0797    5.6963 O.2       9 UNK        -0.5390 
     59 N          33.2848   29.5043    5.1237 N.am      10 UNK        -0.4215 
     60 CA         33.8417   28.1646    5.3164 C.3       10 UNK         0.0240 
     61 CB         34.7408   28.1606    6.5669 C.3       10 UNK        -0.1982 
     62 C          34.6046   27.7729    4.0409 C.2       10 UNK         0.4970 
     63 O          35.8071   28.0208    3.9374 O.2       10 UNK        -0.4916 
     64 N          33.8608   27.2135    3.0832 N.am      11 UNK        -0.4279 
     65 CA         34.2465   26.8513    1.7153 C.3       11 UNK         0.1003 
     66 C          34.8562   28.0331    0.8990 C.2       11 UNK         0.5709 
     67 N          35.6991   27.7691   -0.0901 N.am      11 UNK        -0.7358 
     68 O          34.5150   29.1949    1.1162 O.2       11 UNK        -0.4999 
     69 C69        35.0124   25.4999    1.6483 C.3       12 UNK        -0.0954 
     70 S70        34.6399   24.5935    0.1033 S.3       12 UNK        -0.2268 
     71 C71        34.1268   22.9489    0.6952 C.3       12 UNK         0.0203 
     72 H72        29.1331   26.6482    8.8019 H         1 UNK         0.0888 
     73 H73        29.9309   27.9403    7.9040 H         1 UNK         0.0888 
     74 H74        28.2362   28.1073    8.3685 H         1 UNK         0.0888 
     75 H75        30.1125   27.5617    5.7197 H         1 UNK         0.3017 
     76 H76        28.0916   26.7838    3.9820 H         1 UNK         0.0873 
     77 H77        28.9749   24.5680    3.1688 H         1 UNK         0.0745 
     78 H78        28.1010   24.4983    4.6609 H         1 UNK         0.0745 
     79 H79        29.4708   21.9527    4.2094 H         1 UNK         0.0705 
     80 H80        31.1462   21.7520    4.6483 H         1 UNK         0.0705 
     81 H81        32.9535   22.9010    3.1652 H         1 UNK         0.1334 
     82 H82        32.0110   22.7105   -1.0167 H         1 UNK         0.1417 
     83 H83        28.9102   22.2334    1.9052 H         1 UNK         0.1562 
     84 H84        28.4939   21.6062   -0.4002 H         1 UNK         0.0748 
     85 H85        29.8128   21.5478   -1.5304 H         1 UNK         0.0748 
     86 H86        27.2002   23.5434    0.2620 H         1 UNK         0.0940 
     87 H87        26.4592   24.3141   -1.1145 H         1 UNK         0.0940 
     88 H88        28.5475   25.5153    0.7401 H         1 UNK         0.0703 
     89 H89        29.0940   26.9671   -0.7299 H         1 UNK         0.3081 
     90 H90        28.3067   27.7435   -3.8696 H         1 UNK         0.0719 
     91 H91        27.3054   29.9209   -1.9486 H         1 UNK         0.0809 
     92 H92        27.9096   30.1949   -3.5828 H         1 UNK         0.0809 
     93 H93        26.4295   29.2878   -3.3351 H         1 UNK         0.0809 
     94 H94        29.6593   29.2315   -1.7161 H         1 UNK         0.2990 
     95 H95        32.5349   27.2284   -1.7042 H         1 UNK         0.0690 
     96 H96        33.7707   29.3424   -2.1052 H         1 UNK         0.0788 
     97 H97        32.3270   30.0905   -2.7910 H         1 UNK         0.0788 
     98 H98        33.0993   28.7403   -3.6113 H         1 UNK         0.0788 
     99 H99        31.9558   29.6541   -0.3518 H         1 UNK         0.2993 
    100 H100       31.5742   29.0431    2.2421 H         1 UNK         0.0949 
    101 H101       29.6296   30.6782    2.2471 H         1 UNK         0.0767 
    102 H102       30.5829   30.8157    0.7914 H         1 UNK         0.0767 
    103 H103       29.0387   29.9678    0.7557 H         1 UNK         0.0767 
    104 H104       28.7896   28.3589    2.6254 H         1 UNK         0.3013 
    105 H105       26.4534   27.9302    0.0516 H         1 UNK         0.3121 
    106 H106       24.4525   27.4782    2.1346 H         1 UNK         0.0774 
    107 H107       23.8808   29.8639    1.6388 H         1 UNK         0.0815 
    108 H108       25.3028   30.0187    0.6173 H         1 UNK         0.0815 
    109 H109       23.9852   28.9446    0.1468 H         1 UNK         0.0815 
    110 H110       24.4129   28.6722    4.1510 H         1 UNK         0.2987 
    111 H111       26.9555   28.6071    5.4589 H         1 UNK         0.0949 
    112 H112       25.5937   28.9790    7.5053 H         1 UNK         0.0806 
    113 H113       24.1809   29.3342    6.5188 H         1 UNK         0.0806 
    114 H114       24.9018   27.7225    6.4992 H         1 UNK         0.0806 
    115 H115       27.6148   30.4578    3.8193 H         1 UNK         0.3010 
    116 H116       27.4625   33.1024    5.2361 H         1 UNK         0.0829 
    117 H117       26.5433   33.0797    2.9357 H         1 UNK         0.0813 
    118 H118       28.0012   34.0539    3.0027 H         1 UNK         0.0813 
    119 H119       28.0579   32.4428    2.3026 H         1 UNK         0.0813 
    120 H120       29.6956   30.5074    4.7522 H         1 UNK         0.3038 
    121 H121       31.8995   31.9104    5.8333 H         1 UNK         0.0769 
    122 H122       33.4374   31.9098    3.8864 H         1 UNK         0.0811 
    123 H123       32.0384   32.8593    3.4656 H         1 UNK         0.0811 
    124 H124       32.1996   31.2252    2.8440 H         1 UNK         0.0811 
    125 H125       33.9281   30.1917    4.7557 H         1 UNK         0.3204 
    126 H126       33.0454   27.4329    5.4716 H         1 UNK         0.0748 
    127 H127       35.2004   27.1822    6.7127 H         1 UNK         0.0771 
    128 H128       35.5451   28.8937    6.4936 H         1 UNK         0.0771 
    129 H129       34.1652   28.3862    7.4648 H         1 UNK         0.0771 
    130 H130       32.8735   27.0385    3.2889 H         1 UNK         0.2980 
    131 H131       33.2840   26.6747    1.2406 H         1 UNK         0.0545 
    132 H132       36.0806   28.5286   -0.6308 H         1 UNK         0.3459 
    133 H133       35.9458   26.8156   -0.3072 H         1 UNK         0.3459 
    134 H134       36.0894   25.6468    1.7442 H         1 UNK         0.0616 
    135 H135       34.7222   24.8678    2.4888 H         1 UNK         0.0616 
    136 H136       34.7419   22.6588    1.5485 H         1 UNK         0.0634 
    137 H137       34.3519   22.2240   -0.0883 H         1 UNK         0.0634 
@<TRIPOS>BOND
     1    1    2 1    
     2    1   72 1    
     3    1   73 1    
     4    1   74 1    
     5    2    3 2    
     6    2    4 am   BACKBONE|DICT|INTERRES
     7    4    5 1    
     8    4   75 1    
     9    5    6 1    
    10    5   35 1    
    11    5   76 1    
    12    6    7 1    
    13    6   77 1    
    14    6   78 1    
    15    7    8 1    
    16    8    9 1    
    17    8   79 1    
    18    8   80 1    
    19    9   10 ar   
    20    9   14 ar   
    21   10   11 ar   
    22   10   81 1    
    23   11   12 ar   
    24   11   71 1    
    25   12   13 ar   
    26   12   82 1    
    27   13   14 ar   
    28   13   15 1    
    29   14   83 1    
    30   15   16 1    
    31   15   84 1    
    32   15   85 1    
    33   16   17 1    
    34   17   18 1    
    35   17   86 1    
    36   17   87 1    
    37   18   19 1    
    38   18   37 1    
    39   18   88 1    
    40   19   20 am   BACKBONE|DICT|INTERRES
    41   19   89 1    
    42   20   21 2    
    43   20   22 1    
    44   22   23 1    
    45   22   24 1    
    46   22   90 1    
    47   23   91 1    
    48   23   92 1    
    49   23   93 1    
    50   24   25 am   BACKBONE|DICT|INTERRES
    51   24   94 1    
    52   25   26 2    
    53   25   27 1    
    54   27   28 1    
    55   27   29 1    
    56   27   95 1    
    57   28   96 1    
    58   28   97 1    
    59   28   98 1    
    60   29   30 am   BACKBONE|DICT|INTERRES
    61   29   99 1    
    62   30   31 2    
    63   30   32 1    
    64   32   33 1    
    65   32   34 1    
    66   32  100 1    
    67   33  101 1    
    68   33  102 1    
    69   33  103 1    
    70   34   35 am   BACKBONE|DICT|INTERRES
    71   34  104 1    
    72   35   36 2    
    73   37   38 2    
    74   37   39 am   BACKBONE|DICT|INTERRES
    75   39   40 1    
    76   39  105 1    
    77   40   41 1    
    78   40   42 1    
    79   40  106 1    
    80   41  107 1    
    81   41  108 1    
    82   41  109 1    
    83   42   43 2    
    84   42   44 am   BACKBONE|DICT|INTERRES
    85   44   45 1    
    86   44  110 1    
    87   45   46 1    
    88   45   47 1    
    89   45  111 1    
    90   46  112 1    
    91   46  113 1    
    92   46  114 1    
    93   47   48 2    
    94   47   49 am   BACKBONE|DICT|INTERRES
    95   49   50 1    
    96   49  115 1    
    97   50   51 1    
    98   50   52 1    
    99   50  116 1    
   100   51  117 1    
   101   51  118 1    
   102   51  119 1    
   103   52   53 2    
   104   52   54 am   BACKBONE|DICT|INTERRES
   105   54   55 1    
   106   54  120 1    
   107   55   56 1    
   108   55   57 1    
   109   55  121 1    
   110   56  122 1    
   111   56  123 1    
   112   56  124 1    
   113   57   58 2    
   114   57   59 am   BACKBONE|DICT|INTERRES
   115   59   60 1    
   116   59  125 1    
   117   60   61 1    
   118   60   62 1    
   119   60  126 1    
   120   61  127 1    
   121   61  128 1    
   122   61  129 1    
   123   62   63 2    
   124   62   64 am   BACKBONE|DICT|INTERRES
   125   64   65 1    
   126   64  130 1    
   127   65   66 1    
   128   65   69 1    
   129   65  131 1    
   130   66   67 am   BACKBONE|DICT|INTERRES
   131   66   68 2    
   132   67  132 1    
   133   67  133 1    
   134   69   70 1    
   135   69  134 1    
   136   69  135 1    
   137   70   71 1    
   138   71  136 1    
   139   71  137 1    
@<TRIPOS>SUBSTRUCTURE
     1 UNK         1 GROUP             0       ****    0 ROOT    
