@<TRIPOS>MOLECULE
3R136
137   139    1
SMALL
USER_CHARGES


@<TRIPOS>ATOM
      1 CA         29.6925   22.4700   -3.2440 C.3       0 UNK        -0.1979 
      2 C          29.2866   23.1134   -1.9277 C.2       0 UNK         0.4864 
      3 O          28.7865   24.2400   -1.9300 O.2       0 UNK        -0.5359 
      4 N          29.4820   22.4014   -0.8067 N.am      1 UNK        -0.4318 
      5 CA         29.2195   22.8548    0.5686 C.3       1 UNK         0.0824 
      6 C6         29.5476   21.7694    1.6224 C.3       12 UNK        -0.0944 
      7 S7         31.2954   21.2522    1.5610 S.3       12 UNK        -0.2672 
      8 C8         31.9028   21.7524    3.2074 C.3       12 UNK         0.0333 
      9 C9         31.9442   23.2647    3.3987 C.ar      12 UNK        -0.0807 
     10 C10        32.6962   24.0647    2.5326 C.ar      12 UNK        -0.0894 
     11 C11        32.7745   25.4486    2.7152 C.ar      12 UNK        -0.0804 
     12 C12        32.0805   26.0293    3.7854 C.ar      12 UNK        -0.0824 
     13 C13        31.3300   25.2443    4.6655 C.ar      12 UNK        -0.0762 
     14 C14        31.2712   23.8602    4.4708 C.ar      12 UNK        -0.0782 
     15 C15        30.6105   25.9054    5.8382 C.3       12 UNK         0.0230 
     16 S16        28.8080   25.6132    5.8869 S.3       12 UNK        -0.2608 
     17 C17        28.3050   25.7009    4.1368 C.3       12 UNK        -0.0989 
     18 CA         28.4940   27.0835    3.4607 C.3       5 UNK         0.0716 
     19 N          28.7137   26.9292    2.0177 N.am      5 UNK        -0.4135 
     20 C          29.1203   27.9031    1.1921 C.2       4 UNK         0.5031 
     21 O          29.2897   29.0692    1.5419 O.2       4 UNK        -0.5229 
     22 CA         29.3135   27.5329   -0.2864 C.3       4 UNK         0.0329 
     23 CB         30.6072   26.7309   -0.4949 C.3       4 UNK        -0.2001 
     24 N          28.1826   26.8019   -0.8600 N.am      4 UNK        -0.4303 
     25 C          26.9515   27.3091   -1.0203 C.2       3 UNK         0.5044 
     26 O          26.6063   28.4150   -0.6053 O.2       3 UNK        -0.5152 
     27 CA         25.9368   26.4401   -1.7762 C.3       3 UNK         0.0319 
     28 CB         26.2354   26.4440   -3.2847 C.3       3 UNK        -0.2001 
     29 N          25.9568   25.0661   -1.2795 N.am      3 UNK        -0.4354 
     30 C          25.1242   24.5882   -0.3443 C.2       2 UNK         0.4964 
     31 O          24.1866   25.2281    0.1327 O.2       2 UNK        -0.5047 
     32 CA         25.3850   23.1568    0.1651 C.3       2 UNK         0.0288 
     33 CB         24.5477   22.1423   -0.6305 C.3       2 UNK        -0.2113 
     34 N          26.7947   22.7519    0.1303 N.am      2 UNK        -0.4145 
     35 C          27.7865   23.3794    0.7801 C.2       1 UNK         0.5006 
     36 O          27.6151   24.3725    1.4836 O.2       1 UNK        -0.5103 
     37 C          27.3215   28.0343    3.7741 C.2       5 UNK         0.5055 
     38 O          27.3576   28.7380    4.7845 O.2       5 UNK        -0.5220 
     39 N          26.3165   28.0575    2.8857 N.am      6 UNK        -0.4450 
     40 CA         25.1843   28.9814    2.9369 C.3       6 UNK         0.0367 
     41 CB         24.0792   28.4857    1.9902 C.3       6 UNK        -0.1929 
     42 C          25.5811   30.4308    2.6021 C.2       6 UNK         0.5070 
     43 O          24.9234   31.3527    3.0858 O.2       6 UNK        -0.5237 
     44 N          26.6354   30.6144    1.7934 N.am      7 UNK        -0.4739 
     45 CA         27.1956   31.9220    1.4588 C.3       7 UNK         0.0276 
     46 CB         27.9599   31.8529    0.1253 C.3       7 UNK        -0.1927 
     47 C          28.0775   32.4570    2.5970 C.2       7 UNK         0.5013 
     48 O          27.7994   33.5477    3.0982 O.2       7 UNK        -0.5193 
     49 N          29.1030   31.6916    3.0001 N.am      8 UNK        -0.4253 
     50 CA         30.0288   32.0507    4.0775 C.3       8 UNK         0.0242 
     51 CB         30.9459   33.2150    3.6414 C.3       8 UNK        -0.2000 
     52 C          30.8878   30.8448    4.4720 C.2       8 UNK         0.4948 
     53 O          31.1774   29.9947    3.6333 O.2       8 UNK        -0.5275 
     54 N          31.3606   30.8347    5.7248 N.am      9 UNK        -0.4246 
     55 CA         32.3339   29.8566    6.2283 C.3       9 UNK         0.0261 
     56 CB         32.2125   29.7692    7.7586 C.3       9 UNK        -0.1959 
     57 C          33.7873   30.1647    5.8130 C.2       9 UNK         0.5033 
     58 O          34.6626   29.3248    6.0267 O.2       9 UNK        -0.5390 
     59 N          34.0258   31.3523    5.2349 N.am      10 UNK        -0.4215 
     60 CA         35.3324   31.8867    4.8314 C.3       10 UNK         0.0240 
     61 CB         35.1378   33.3072    4.2750 C.3       10 UNK        -0.1982 
     62 C          36.1182   31.0222    3.8271 C.2       10 UNK         0.4970 
     63 O          37.3445   31.1287    3.7828 O.2       10 UNK        -0.4916 
     64 N          35.4167   30.1825    3.0560 N.am      11 UNK        -0.4279 
     65 CA         36.0064   29.1538    2.1867 C.3       11 UNK         0.1003 
     66 C          36.6818   27.9691    2.9420 C.2       11 UNK         0.5709 
     67 N          36.4698   27.7890    4.2414 N.am      11 UNK        -0.7358 
     68 O          37.4241   27.2026    2.3328 O.2       11 UNK        -0.4999 
     69 C69        34.9958   28.6644    1.1136 C.3       12 UNK        -0.0954 
     70 S70        33.4229   28.0644    1.8175 S.3       12 UNK        -0.2268 
     71 C71        33.6677   26.2557    1.7708 C.3       12 UNK         0.0203 
     72 H72        30.1111   21.4741   -3.1000 H         1 UNK         0.0888 
     73 H73        28.8275   22.3843   -3.9009 H         1 UNK         0.0888 
     74 H74        30.4407   23.0844   -3.7439 H         1 UNK         0.0888 
     75 H75        29.9068   21.4872   -0.8765 H         1 UNK         0.3017 
     76 H76        29.8868   23.6991    0.7492 H         1 UNK         0.0873 
     77 H77        29.3202   22.1305    2.6278 H         1 UNK         0.0745 
     78 H78        28.9255   20.8852    1.4713 H         1 UNK         0.0745 
     79 H79        32.9110   21.3579    3.3403 H         1 UNK         0.0705 
     80 H80        31.2864   21.2765    3.9719 H         1 UNK         0.0705 
     81 H81        33.2364   23.6012    1.7181 H         1 UNK         0.1334 
     82 H82        32.1320   27.0955    3.9545 H         1 UNK         0.1417 
     83 H83        30.6985   23.2513    5.1573 H         1 UNK         0.1562 
     84 H84        30.7696   26.9835    5.8275 H         1 UNK         0.0748 
     85 H85        31.0490   25.5465    6.7702 H         1 UNK         0.0748 
     86 H86        27.2704   25.3609    4.0548 H         1 UNK         0.0940 
     87 H87        28.8846   24.9431    3.6110 H         1 UNK         0.0940 
     88 H88        29.3978   27.5516    3.8555 H         1 UNK         0.0703 
     89 H89        28.4997   26.0108    1.6378 H         1 UNK         0.3081 
     90 H90        29.4087   28.4655   -0.8467 H         1 UNK         0.0719 
     91 H91        30.6251   25.8187    0.1006 H         1 UNK         0.0809 
     92 H92        30.7402   26.4519   -1.5403 H         1 UNK         0.0809 
     93 H93        31.4744   27.3247   -0.2091 H         1 UNK         0.0809 
     94 H94        28.3854   25.8802   -1.2436 H         1 UNK         0.2990 
     95 H95        24.9467   26.8780   -1.6316 H         1 UNK         0.0690 
     96 H96        27.2099   26.0081   -3.5093 H         1 UNK         0.0788 
     97 H97        26.2330   27.4609   -3.6797 H         1 UNK         0.0788 
     98 H98        25.4830   25.8804   -3.8365 H         1 UNK         0.0788 
     99 H99        26.7358   24.4909   -1.5798 H         1 UNK         0.2993 
    100 H100       25.0632   23.1255    1.2084 H         1 UNK         0.0949 
    101 H101       24.8469   22.1060   -1.6789 H         1 UNK         0.0767 
    102 H102       24.6425   21.1377   -0.2177 H         1 UNK         0.0767 
    103 H103       23.4886   22.4030   -0.6024 H         1 UNK         0.0767 
    104 H104       27.0276   21.9546   -0.4438 H         1 UNK         0.3013 
    105 H105       26.3768   27.4569    2.0760 H         1 UNK         0.3121 
    106 H106       24.7881   28.9753    3.9548 H         1 UNK         0.0774 
    107 H107       23.2027   29.1327    2.0437 H         1 UNK         0.0815 
    108 H108       24.4098   28.4729    0.9513 H         1 UNK         0.0815 
    109 H109       23.7539   27.4779    2.2493 H         1 UNK         0.0815 
    110 H110       27.1347   29.8056    1.4440 H         1 UNK         0.2987 
    111 H111       26.3701   32.6245    1.3219 H         1 UNK         0.0949 
    112 H112       28.8307   31.2005    0.1783 H         1 UNK         0.0806 
    113 H113       27.3198   31.4869   -0.6779 H         1 UNK         0.0806 
    114 H114       28.3155   32.8416   -0.1673 H         1 UNK         0.0806 
    115 H115       29.2719   30.7866    2.5605 H         1 UNK         0.3010 
    116 H116       29.4403   32.3539    4.9462 H         1 UNK         0.0829 
    117 H117       31.6440   33.4888    4.4329 H         1 UNK         0.0813 
    118 H118       31.5343   32.9513    2.7614 H         1 UNK         0.0813 
    119 H119       30.3781   34.1140    3.4031 H         1 UNK         0.0813 
    120 H120       31.0804   31.5662    6.3638 H         1 UNK         0.3038 
    121 H121       32.0924   28.8770    5.8138 H         1 UNK         0.0769 
    122 H122       32.8963   29.0215    8.1630 H         1 UNK         0.0811 
    123 H123       31.2057   29.4795    8.0604 H         1 UNK         0.0811 
    124 H124       32.4487   30.7196    8.2387 H         1 UNK         0.0811 
    125 H125       33.2359   31.9637    5.1002 H         1 UNK         0.3204 
    126 H126       35.9424   31.9541    5.7345 H         1 UNK         0.0748 
    127 H127       36.0932   33.7505    3.9899 H         1 UNK         0.0771 
    128 H128       34.5007   33.3099    3.3895 H         1 UNK         0.0771 
    129 H129       34.6875   33.9677    5.0163 H         1 UNK         0.0771 
    130 H130       34.4133   30.1417    3.1609 H         1 UNK         0.2980 
    131 H131       36.8192   29.6383    1.6423 H         1 UNK         0.0545 
    132 H132       35.8500   28.3999    4.7646 H         1 UNK         0.3459 
    133 H133       36.9210   27.0196    4.7088 H         1 UNK         0.3459 
    134 H134       34.7547   29.4924    0.4456 H         1 UNK         0.0616 
    135 H135       35.4363   27.8959    0.4757 H         1 UNK         0.0616 
    136 H136       33.5145   25.9191    0.7444 H         1 UNK         0.0634 
    137 H137       34.7037   26.0278    2.0214 H         1 UNK         0.0634 
@<TRIPOS>BOND
     1    1    2 1    
     2    1   72 1    
     3    1   73 1    
     4    1   74 1    
     5    2    3 2    
     6    2    4 am   BACKBONE|DICT|INTERRES
     7    4    5 1    
     8    4   75 1    
     9    5    6 1    
    10    5   35 1    
    11    5   76 1    
    12    6    7 1    
    13    6   77 1    
    14    6   78 1    
    15    7    8 1    
    16    8    9 1    
    17    8   79 1    
    18    8   80 1    
    19    9   10 ar   
    20    9   14 ar   
    21   10   11 ar   
    22   10   81 1    
    23   11   12 ar   
    24   11   71 1    
    25   12   13 ar   
    26   12   82 1    
    27   13   14 ar   
    28   13   15 1    
    29   14   83 1    
    30   15   16 1    
    31   15   84 1    
    32   15   85 1    
    33   16   17 1    
    34   17   18 1    
    35   17   86 1    
    36   17   87 1    
    37   18   19 1    
    38   18   37 1    
    39   18   88 1    
    40   19   20 am   BACKBONE|DICT|INTERRES
    41   19   89 1    
    42   20   21 2    
    43   20   22 1    
    44   22   23 1    
    45   22   24 1    
    46   22   90 1    
    47   23   91 1    
    48   23   92 1    
    49   23   93 1    
    50   24   25 am   BACKBONE|DICT|INTERRES
    51   24   94 1    
    52   25   26 2    
    53   25   27 1    
    54   27   28 1    
    55   27   29 1    
    56   27   95 1    
    57   28   96 1    
    58   28   97 1    
    59   28   98 1    
    60   29   30 am   BACKBONE|DICT|INTERRES
    61   29   99 1    
    62   30   31 2    
    63   30   32 1    
    64   32   33 1    
    65   32   34 1    
    66   32  100 1    
    67   33  101 1    
    68   33  102 1    
    69   33  103 1    
    70   34   35 am   BACKBONE|DICT|INTERRES
    71   34  104 1    
    72   35   36 2    
    73   37   38 2    
    74   37   39 am   BACKBONE|DICT|INTERRES
    75   39   40 1    
    76   39  105 1    
    77   40   41 1    
    78   40   42 1    
    79   40  106 1    
    80   41  107 1    
    81   41  108 1    
    82   41  109 1    
    83   42   43 2    
    84   42   44 am   BACKBONE|DICT|INTERRES
    85   44   45 1    
    86   44  110 1    
    87   45   46 1    
    88   45   47 1    
    89   45  111 1    
    90   46  112 1    
    91   46  113 1    
    92   46  114 1    
    93   47   48 2    
    94   47   49 am   BACKBONE|DICT|INTERRES
    95   49   50 1    
    96   49  115 1    
    97   50   51 1    
    98   50   52 1    
    99   50  116 1    
   100   51  117 1    
   101   51  118 1    
   102   51  119 1    
   103   52   53 2    
   104   52   54 am   BACKBONE|DICT|INTERRES
   105   54   55 1    
   106   54  120 1    
   107   55   56 1    
   108   55   57 1    
   109   55  121 1    
   110   56  122 1    
   111   56  123 1    
   112   56  124 1    
   113   57   58 2    
   114   57   59 am   BACKBONE|DICT|INTERRES
   115   59   60 1    
   116   59  125 1    
   117   60   61 1    
   118   60   62 1    
   119   60  126 1    
   120   61  127 1    
   121   61  128 1    
   122   61  129 1    
   123   62   63 2    
   124   62   64 am   BACKBONE|DICT|INTERRES
   125   64   65 1    
   126   64  130 1    
   127   65   66 1    
   128   65   69 1    
   129   65  131 1    
   130   66   67 am   BACKBONE|DICT|INTERRES
   131   66   68 2    
   132   67  132 1    
   133   67  133 1    
   134   69   70 1    
   135   69  134 1    
   136   69  135 1    
   137   70   71 1    
   138   71  136 1    
   139   71  137 1    
@<TRIPOS>SUBSTRUCTURE
     1 UNK         1 GROUP             0       ****    0 ROOT    
