@<TRIPOS>MOLECULE
3R136
137   139    1
SMALL
USER_CHARGES


@<TRIPOS>ATOM
      1 CA         30.0360   21.1420   -1.4477 C.3       0 UNK        -0.1979 
      2 C          29.6250   22.5982   -1.2959 C.2       0 UNK         0.4864 
      3 O          28.6063   22.8800   -0.6632 O.2       0 UNK        -0.5359 
      4 N          30.4023   23.5225   -1.8844 N.am      1 UNK        -0.4318 
      5 CA         30.2416   24.9866   -1.8037 C.3       1 UNK         0.0824 
      6 C6         30.5788   25.5436   -0.3903 C.3       12 UNK        -0.0944 
      7 S7         32.3430   25.3417    0.0262 S.3       12 UNK        -0.2672 
      8 C8         32.3548   23.8333    1.0447 C.3       12 UNK         0.0333 
      9 C9         31.7218   24.0417    2.4123 C.ar      12 UNK        -0.0807 
     10 C10        32.4316   24.7052    3.4178 C.ar      12 UNK        -0.0894 
     11 C11        31.8816   24.8515    4.6944 C.ar      12 UNK        -0.0804 
     12 C12        30.6111   24.3346    4.9611 C.ar      12 UNK        -0.0824 
     13 C13        29.8914   23.6705    3.9634 C.ar      12 UNK        -0.0762 
     14 C14        30.4498   23.5297    2.6893 C.ar      12 UNK        -0.0782 
     15 C15        28.5272   23.0710    4.2725 C.3       12 UNK         0.0230 
     16 S16        27.1655   24.0798    3.6126 S.3       12 UNK        -0.2608 
     17 C17        27.3091   25.6110    4.5992 C.3       12 UNK        -0.0989 
     18 CA         27.8296   26.7979    3.7527 C.3       5 UNK         0.0716 
     19 N          26.9614   27.0476    2.6038 N.am      5 UNK        -0.4135 
     20 C          27.1533   27.9414    1.6281 C.2       4 UNK         0.5031 
     21 O          28.1208   28.7067    1.5708 O.2       4 UNK        -0.5229 
     22 CA         26.0800   27.9381    0.5253 C.3       4 UNK         0.0329 
     23 CB         26.3399   28.9675   -0.5875 C.3       4 UNK        -0.2001 
     24 N          25.9838   26.6050   -0.0727 N.am      4 UNK        -0.4303 
     25 C          25.2011   25.6095    0.3704 C.2       3 UNK         0.5044 
     26 O          24.4484   25.7385    1.3374 O.2       3 UNK        -0.5152 
     27 CA         25.3012   24.2321   -0.3220 C.3       3 UNK         0.0319 
     28 CB         23.9195   23.5752   -0.5249 C.3       3 UNK        -0.2001 
     29 N          26.0834   24.2336   -1.5644 N.am      3 UNK        -0.4354 
     30 C          25.8002   24.8664   -2.7164 C.2       2 UNK         0.4964 
     31 O          24.7381   25.4522   -2.9304 O.2       2 UNK        -0.5047 
     32 CA         26.9067   24.8818   -3.7975 C.3       2 UNK         0.0288 
     33 CB         26.8350   26.1386   -4.6917 C.3       2 UNK        -0.2113 
     34 N          28.2666   24.7181   -3.2592 N.am      2 UNK        -0.4145 
     35 C          28.8651   25.4722   -2.3202 C.2       1 UNK         0.5006 
     36 O          28.3469   26.4786   -1.8359 O.2       1 UNK        -0.5103 
     37 C          27.9641   28.0699    4.6090 C.2       5 UNK         0.5055 
     38 O          26.9450   28.6406    5.0047 O.2       5 UNK        -0.5220 
     39 N          29.2123   28.4935    4.8504 N.am      6 UNK        -0.4450 
     40 CA         29.6090   29.7227    5.5513 C.3       6 UNK         0.0367 
     41 CB         29.1620   29.6925    7.0286 C.3       6 UNK        -0.1929 
     42 C          29.2053   31.0281    4.8294 C.2       6 UNK         0.5070 
     43 O          29.2075   32.0867    5.4607 O.2       6 UNK        -0.5237 
     44 N          28.8854   30.9472    3.5295 N.am      7 UNK        -0.4739 
     45 CA         28.5813   32.0913    2.6686 C.3       7 UNK         0.0276 
     46 CB         27.0960   32.0689    2.2721 C.3       7 UNK        -0.1927 
     47 C          29.4980   32.1011    1.4382 C.2       7 UNK         0.5013 
     48 O          30.1170   33.1290    1.1611 O.2       7 UNK        -0.5193 
     49 N          29.6003   30.9615    0.7377 N.am      8 UNK        -0.4253 
     50 CA         30.5007   30.7766   -0.4081 C.3       8 UNK         0.0242 
     51 CB         29.9186   29.7088   -1.3473 C.3       8 UNK        -0.2000 
     52 C          31.9425   30.4197    0.0001 C.2       8 UNK         0.4948 
     53 O          32.8330   30.4588   -0.8505 O.2       8 UNK        -0.5275 
     54 N          32.1535   30.0911    1.2781 N.am      9 UNK        -0.4246 
     55 CA         33.4471   29.8396    1.9015 C.3       9 UNK         0.0261 
     56 CB         33.6523   28.3234    2.0596 C.3       9 UNK        -0.1959 
     57 C          33.4468   30.5362    3.2648 C.2       9 UNK         0.5033 
     58 O          32.3749   30.7334    3.8412 O.2       9 UNK        -0.5390 
     59 N          34.6395   30.8883    3.7606 N.am      10 UNK        -0.4215 
     60 CA         34.8226   31.5278    5.0679 C.3       10 UNK         0.0240 
     61 CB         36.2308   32.1406    5.1481 C.3       10 UNK        -0.1982 
     62 C          34.5836   30.5672    6.2458 C.2       10 UNK         0.4970 
     63 O          34.0907   31.0054    7.2856 O.2       10 UNK        -0.4916 
     64 N          34.9445   29.2891    6.0573 N.am      11 UNK        -0.4279 
     65 CA         34.7925   28.1854    7.0235 C.3       11 UNK         0.1003 
     66 C          35.6258   28.3369    8.3348 C.2       11 UNK         0.5709 
     67 N          36.6570   29.1730    8.3680 N.am      11 UNK        -0.7358 
     68 O          35.3630   27.6623    9.3279 O.2       11 UNK        -0.4999 
     69 C69        33.3033   27.8172    7.2869 C.3       12 UNK        -0.0954 
     70 S70        32.4209   27.3342    5.7653 S.3       12 UNK        -0.2268 
     71 C71        32.6709   25.5368    5.7968 C.3       12 UNK         0.0203 
     72 H72        29.2466   20.5794   -1.9452 H         1 UNK         0.0888 
     73 H73        30.9505   21.0339   -2.0306 H         1 UNK         0.0888 
     74 H74        30.2047   20.6981   -0.4669 H         1 UNK         0.0888 
     75 H75        31.2146   23.2156   -2.4020 H         1 UNK         0.3017 
     76 H76        30.9628   25.4106   -2.5042 H         1 UNK         0.0873 
     77 H77        30.3828   26.6147   -0.3342 H         1 UNK         0.0745 
     78 H78        29.9473   25.0893    0.3738 H         1 UNK         0.0745 
     79 H79        33.3904   23.5173    1.1782 H         1 UNK         0.0705 
     80 H80        31.8644   23.0208    0.5100 H         1 UNK         0.0705 
     81 H81        33.4174   25.0982    3.2086 H         1 UNK         0.1334 
     82 H82        30.1898   24.4377    5.9518 H         1 UNK         0.1417 
     83 H83        29.8952   23.0114    1.9180 H         1 UNK         0.1562 
     84 H84        28.3934   22.9406    5.3476 H         1 UNK         0.0748 
     85 H85        28.4651   22.0724    3.8376 H         1 UNK         0.0748 
     86 H86        27.9566   25.4360    5.4597 H         1 UNK         0.0940 
     87 H87        26.3236   25.8384    5.0111 H         1 UNK         0.0940 
     88 H88        28.8137   26.5337    3.3585 H         1 UNK         0.0703 
     89 H89        26.1323   26.4692    2.5487 H         1 UNK         0.3081 
     90 H90        25.1315   28.2012    0.9983 H         1 UNK         0.0719 
     91 H91        27.2442   28.7320   -1.1439 H         1 UNK         0.0809 
     92 H92        25.5142   28.9927   -1.2986 H         1 UNK         0.0809 
     93 H93        26.4518   29.9742   -0.1864 H         1 UNK         0.0809 
     94 H94        26.6444   26.4145   -0.8209 H         1 UNK         0.2990 
     95 H95        25.8624   23.6011    0.3692 H         1 UNK         0.0690 
     96 H96        24.0102   22.5988   -1.0007 H         1 UNK         0.0788 
     97 H97        23.2620   24.1902   -1.1396 H         1 UNK         0.0788 
     98 H98        23.4164   23.4224    0.4307 H         1 UNK         0.0788 
     99 H99        26.9940   23.7898   -1.4762 H         1 UNK         0.2993 
    100 H100       26.7182   24.0126   -4.4294 H         1 UNK         0.0949 
    101 H101       26.9463   27.0547   -4.1101 H         1 UNK         0.0767 
    102 H102       27.6144   26.1286   -5.4536 H         1 UNK         0.0767 
    103 H103       25.8780   26.1979   -5.2117 H         1 UNK         0.0767 
    104 H104       28.7677   23.9024   -3.5834 H         1 UNK         0.3013 
    105 H105       29.9828   27.9491    4.4854 H         1 UNK         0.3121 
    106 H106       30.6987   29.7234    5.5547 H         1 UNK         0.0774 
    107 H107       29.6012   30.5208    7.5858 H         1 UNK         0.0815 
    108 H108       28.0795   29.7735    7.1285 H         1 UNK         0.0815 
    109 H109       29.4798   28.7724    7.5189 H         1 UNK         0.0815 
    110 H110       28.8708   30.0350    3.0892 H         1 UNK         0.2987 
    111 H111       28.7680   33.0265    3.2014 H         1 UNK         0.0949 
    112 H112       26.8633   32.8728    1.5724 H         1 UNK         0.0806 
    113 H113       26.8143   31.1289    1.8006 H         1 UNK         0.0806 
    114 H114       26.4573   32.2033    3.1451 H         1 UNK         0.0806 
    115 H115       29.0460   30.1517    1.0147 H         1 UNK         0.3010 
    116 H116       30.5582   31.7121   -0.9689 H         1 UNK         0.0829 
    117 H117       28.9997   30.0621   -1.8135 H         1 UNK         0.0813 
    118 H118       30.6107   29.4661   -2.1548 H         1 UNK         0.0813 
    119 H119       29.6967   28.7831   -0.8172 H         1 UNK         0.0813 
    120 H120       31.3881   30.1723    1.9345 H         1 UNK         0.3038 
    121 H121       34.2507   30.2606    1.2935 H         1 UNK         0.0769 
    122 H122       32.8526   27.8651    2.6435 H         1 UNK         0.0811 
    123 H123       34.5940   28.0998    2.5619 H         1 UNK         0.0811 
    124 H124       33.6794   27.8304    1.0883 H         1 UNK         0.0811 
    125 H125       35.4719   30.7042    3.2183 H         1 UNK         0.3204 
    126 H126       34.0956   32.3387    5.1546 H         1 UNK         0.0748 
    127 H127       36.3850   32.6390    6.1064 H         1 UNK         0.0771 
    128 H128       37.0105   31.3851    5.0441 H         1 UNK         0.0771 
    129 H129       36.3820   32.8887    4.3695 H         1 UNK         0.0771 
    130 H130       35.3526   29.0351    5.1710 H         1 UNK         0.2980 
    131 H131       35.2449   27.3223    6.5344 H         1 UNK         0.0545 
    132 H132       36.8954   29.7246    7.5601 H         1 UNK         0.3459 
    133 H133       37.1972   29.2555    9.2148 H         1 UNK         0.3459 
    134 H134       32.7742   28.6591    7.7356 H         1 UNK         0.0616 
    135 H135       33.2220   26.9994    8.0045 H         1 UNK         0.0616 
    136 H136       32.3703   25.1431    6.7690 H         1 UNK         0.0634 
    137 H137       33.7343   25.3181    5.6890 H         1 UNK         0.0634 
@<TRIPOS>BOND
     1    1    2 1    
     2    1   72 1    
     3    1   73 1    
     4    1   74 1    
     5    2    3 2    
     6    2    4 am   BACKBONE|DICT|INTERRES
     7    4    5 1    
     8    4   75 1    
     9    5    6 1    
    10    5   35 1    
    11    5   76 1    
    12    6    7 1    
    13    6   77 1    
    14    6   78 1    
    15    7    8 1    
    16    8    9 1    
    17    8   79 1    
    18    8   80 1    
    19    9   10 ar   
    20    9   14 ar   
    21   10   11 ar   
    22   10   81 1    
    23   11   12 ar   
    24   11   71 1    
    25   12   13 ar   
    26   12   82 1    
    27   13   14 ar   
    28   13   15 1    
    29   14   83 1    
    30   15   16 1    
    31   15   84 1    
    32   15   85 1    
    33   16   17 1    
    34   17   18 1    
    35   17   86 1    
    36   17   87 1    
    37   18   19 1    
    38   18   37 1    
    39   18   88 1    
    40   19   20 am   BACKBONE|DICT|INTERRES
    41   19   89 1    
    42   20   21 2    
    43   20   22 1    
    44   22   23 1    
    45   22   24 1    
    46   22   90 1    
    47   23   91 1    
    48   23   92 1    
    49   23   93 1    
    50   24   25 am   BACKBONE|DICT|INTERRES
    51   24   94 1    
    52   25   26 2    
    53   25   27 1    
    54   27   28 1    
    55   27   29 1    
    56   27   95 1    
    57   28   96 1    
    58   28   97 1    
    59   28   98 1    
    60   29   30 am   BACKBONE|DICT|INTERRES
    61   29   99 1    
    62   30   31 2    
    63   30   32 1    
    64   32   33 1    
    65   32   34 1    
    66   32  100 1    
    67   33  101 1    
    68   33  102 1    
    69   33  103 1    
    70   34   35 am   BACKBONE|DICT|INTERRES
    71   34  104 1    
    72   35   36 2    
    73   37   38 2    
    74   37   39 am   BACKBONE|DICT|INTERRES
    75   39   40 1    
    76   39  105 1    
    77   40   41 1    
    78   40   42 1    
    79   40  106 1    
    80   41  107 1    
    81   41  108 1    
    82   41  109 1    
    83   42   43 2    
    84   42   44 am   BACKBONE|DICT|INTERRES
    85   44   45 1    
    86   44  110 1    
    87   45   46 1    
    88   45   47 1    
    89   45  111 1    
    90   46  112 1    
    91   46  113 1    
    92   46  114 1    
    93   47   48 2    
    94   47   49 am   BACKBONE|DICT|INTERRES
    95   49   50 1    
    96   49  115 1    
    97   50   51 1    
    98   50   52 1    
    99   50  116 1    
   100   51  117 1    
   101   51  118 1    
   102   51  119 1    
   103   52   53 2    
   104   52   54 am   BACKBONE|DICT|INTERRES
   105   54   55 1    
   106   54  120 1    
   107   55   56 1    
   108   55   57 1    
   109   55  121 1    
   110   56  122 1    
   111   56  123 1    
   112   56  124 1    
   113   57   58 2    
   114   57   59 am   BACKBONE|DICT|INTERRES
   115   59   60 1    
   116   59  125 1    
   117   60   61 1    
   118   60   62 1    
   119   60  126 1    
   120   61  127 1    
   121   61  128 1    
   122   61  129 1    
   123   62   63 2    
   124   62   64 am   BACKBONE|DICT|INTERRES
   125   64   65 1    
   126   64  130 1    
   127   65   66 1    
   128   65   69 1    
   129   65  131 1    
   130   66   67 am   BACKBONE|DICT|INTERRES
   131   66   68 2    
   132   67  132 1    
   133   67  133 1    
   134   69   70 1    
   135   69  134 1    
   136   69  135 1    
   137   70   71 1    
   138   71  136 1    
   139   71  137 1    
@<TRIPOS>SUBSTRUCTURE
     1 UNK         1 GROUP             0       ****    0 ROOT    
