@<TRIPOS>MOLECULE
3R136
137   139    1
SMALL
USER_CHARGES


@<TRIPOS>ATOM
      1 CA         27.6540   27.9649   -2.8178 C.3       0 UNK        -0.1979 
      2 C          27.6060   26.7875   -1.8568 C.2       0 UNK         0.4864 
      3 O          26.6728   26.6919   -1.0606 O.2       0 UNK        -0.5359 
      4 N          28.5939   25.8846   -1.9437 N.am      1 UNK        -0.4318 
      5 CA         28.8229   24.7325   -1.0551 C.3       1 UNK         0.0824 
      6 C6         30.0420   23.8916   -1.5145 C.3       12 UNK        -0.0944 
      7 S7         31.5461   24.8867   -1.7964 S.3       12 UNK        -0.2672 
      8 C8         32.7753   24.0281   -0.7674 C.3       12 UNK         0.0333 
      9 C9         32.6092   24.3423    0.7120 C.ar      12 UNK        -0.0807 
     10 C10        33.0353   25.5756    1.2140 C.ar      12 UNK        -0.0894 
     11 C11        32.9431   25.8622    2.5793 C.ar      12 UNK        -0.0804 
     12 C12        32.4173   24.8937    3.4422 C.ar      12 UNK        -0.0824 
     13 C13        31.9808   23.6569    2.9538 C.ar      12 UNK        -0.0762 
     14 C14        32.0743   23.3899    1.5849 C.ar      12 UNK        -0.0782 
     15 C15        31.4449   22.5934    3.9064 C.3       12 UNK         0.0230 
     16 S16        29.6355   22.6874    4.1165 S.3       12 UNK        -0.2608 
     17 C17        29.4707   24.2419    5.0533 C.3       12 UNK        -0.0989 
     18 CA         29.0546   25.4056    4.1165 C.3       5 UNK         0.0716 
     19 N          27.6147   25.3905    3.8375 N.am      5 UNK        -0.4135 
     20 C          27.0330   25.9480    2.7694 C.2       4 UNK         0.5031 
     21 O          27.6591   26.4973    1.8599 O.2       4 UNK        -0.5229 
     22 CA         25.5039   25.9884    2.7745 C.3       4 UNK         0.0329 
     23 CB         25.0153   27.2601    3.4973 C.3       4 UNK        -0.2001 
     24 N          25.0035   25.9581    1.4024 N.am      4 UNK        -0.4303 
     25 C          23.7419   25.6643    1.0600 C.2       3 UNK         0.5044 
     26 O          22.8512   25.4083    1.8719 O.2       3 UNK        -0.5152 
     27 CA         23.4169   25.6218   -0.4389 C.3       3 UNK         0.0319 
     28 CB         23.2973   27.0397   -1.0229 C.3       3 UNK        -0.2001 
     29 N          24.4301   24.8598   -1.1674 N.am      3 UNK        -0.4354 
     30 C          24.4121   23.5253   -1.3028 C.2       2 UNK         0.4964 
     31 O          23.4999   22.8096   -0.8870 O.2       2 UNK        -0.5047 
     32 CA         25.5947   22.8626   -2.0324 C.3       2 UNK         0.0288 
     33 CB         25.2321   22.5858   -3.5008 C.3       2 UNK        -0.2113 
     34 N          26.8262   23.6512   -1.9863 N.am      2 UNK        -0.4145 
     35 C          27.5967   23.8073   -0.8996 C.2       1 UNK         0.5006 
     36 O          27.3746   23.2611    0.1818 O.2       1 UNK        -0.5103 
     37 C          29.4944   26.7919    4.6355 C.2       5 UNK         0.5055 
     38 O          29.9420   26.9245    5.7748 O.2       5 UNK        -0.5220 
     39 N          29.3438   27.7987    3.7721 N.am      6 UNK        -0.4450 
     40 CA         29.7366   29.1925    3.9573 C.3       6 UNK         0.0367 
     41 CB         28.7789   29.8997    4.9393 C.3       6 UNK        -0.1929 
     42 C          29.7859   29.8685    2.5771 C.2       6 UNK         0.5070 
     43 O          29.3542   31.0137    2.4384 O.2       6 UNK        -0.5237 
     44 N          30.2848   29.1309    1.5707 N.am      7 UNK        -0.4739 
     45 CA         30.2262   29.4493    0.1365 C.3       7 UNK         0.0276 
     46 CB         30.9297   28.3297   -0.6443 C.3       7 UNK        -0.1927 
     47 C          30.7994   30.8206   -0.2628 C.2       7 UNK         0.5013 
     48 O          30.2992   31.4348   -1.2057 O.2       7 UNK        -0.5193 
     49 N          31.8101   31.2805    0.4797 N.am      8 UNK        -0.4253 
     50 CA         32.3542   32.6353    0.4248 C.3       8 UNK         0.0242 
     51 CB         33.5940   32.6627   -0.4903 C.3       8 UNK        -0.2000 
     52 C          32.6444   33.1009    1.8601 C.2       8 UNK         0.4948 
     53 O          33.7054   33.6734    2.1155 O.2       8 UNK        -0.5275 
     54 N          31.7137   32.7911    2.7797 N.am      9 UNK        -0.4246 
     55 CA         31.8658   32.8477    4.2375 C.3       9 UNK         0.0261 
     56 CB         31.9983   34.3068    4.7328 C.3       9 UNK        -0.1959 
     57 C          32.9971   31.9012    4.6898 C.2       9 UNK         0.5033 
     58 O          33.0451   30.7667    4.2057 O.2       9 UNK        -0.5390 
     59 N          33.8733   32.3743    5.5879 N.am      10 UNK        -0.4215 
     60 CA         35.1188   31.7666    6.0831 C.3       10 UNK         0.0240 
     61 CB         36.1247   31.5520    4.9342 C.3       10 UNK        -0.1982 
     62 C          34.9554   30.4782    6.9093 C.2       10 UNK         0.4970 
     63 O          35.5493   30.3790    7.9836 O.2       10 UNK        -0.4916 
     64 N          34.1820   29.5170    6.3979 N.am      11 UNK        -0.4279 
     65 CA         33.9763   28.1864    6.9907 C.3       11 UNK         0.1003 
     66 C          33.0406   28.1644    8.2348 C.2       11 UNK         0.5709 
     67 N          32.3388   29.2433    8.5624 N.am      11 UNK        -0.7358 
     68 O          32.9635   27.1513    8.9260 O.2       11 UNK        -0.4999 
     69 C69        33.5218   27.1455    5.9345 C.3       12 UNK        -0.0954 
     70 S70        34.6127   27.0759    4.4694 S.3       12 UNK        -0.2268 
     71 C71        33.4132   27.2181    3.1020 C.3       12 UNK         0.0203 
     72 H72        27.6803   28.9006   -2.2601 H         1 UNK         0.0888 
     73 H73        28.5316   27.9305   -3.4631 H         1 UNK         0.0888 
     74 H74        26.7661   27.9694   -3.4492 H         1 UNK         0.0888 
     75 H75        29.3248   26.0271   -2.6268 H         1 UNK         0.3017 
     76 H76        29.0421   25.1393   -0.0656 H         1 UNK         0.0873 
     77 H77        29.8199   23.3712   -2.4484 H         1 UNK         0.0745 
     78 H78        30.2556   23.1124   -0.7807 H         1 UNK         0.0745 
     79 H79        32.7214   22.9537   -0.9504 H         1 UNK         0.0705 
     80 H80        33.7716   24.3374   -1.0867 H         1 UNK         0.0705 
     81 H81        33.4489   26.3086    0.5347 H         1 UNK         0.1334 
     82 H82        32.3555   25.0998    4.4999 H         1 UNK         0.1417 
     83 H83        31.7488   22.4314    1.2038 H         1 UNK         0.1562 
     84 H84        31.9327   22.6734    4.8792 H         1 UNK         0.0748 
     85 H85        31.6984   21.6018    3.5283 H         1 UNK         0.0748 
     86 H86        30.4171   24.4370    5.5594 H         1 UNK         0.0940 
     87 H87        28.7421   24.1049    5.8541 H         1 UNK         0.0940 
     88 H88        29.5801   25.2741    3.1676 H         1 UNK         0.0703 
     89 H89        27.0294   24.9932    4.5576 H         1 UNK         0.3081 
     90 H90        25.1363   25.1041    3.2998 H         1 UNK         0.0719 
     91 H91        25.4119   27.3147    4.5120 H         1 UNK         0.0809 
     92 H92        25.3331   28.1633    2.9744 H         1 UNK         0.0809 
     93 H93        23.9287   27.2861    3.5778 H         1 UNK         0.0809 
     94 H94        25.6942   26.1622    0.6822 H         1 UNK         0.2990 
     95 H95        22.4465   25.1351   -0.5601 H         1 UNK         0.0690 
     96 H96        23.0490   27.0109   -2.0839 H         1 UNK         0.0788 
     97 H97        24.2191   27.6107   -0.9103 H         1 UNK         0.0788 
     98 H98        22.5074   27.5992   -0.5201 H         1 UNK         0.0788 
     99 H99        25.2541   25.3780   -1.4556 H         1 UNK         0.2993 
    100 H100       25.7845   21.9059   -1.5402 H         1 UNK         0.0949 
    101 H101       25.0409   23.5082   -4.0509 H         1 UNK         0.0767 
    102 H102       26.0302   22.0473   -4.0124 H         1 UNK         0.0767 
    103 H103       24.3328   21.9720   -3.5716 H         1 UNK         0.0767 
    104 H104       27.0879   24.1405   -2.8300 H         1 UNK         0.3013 
    105 H105       28.8900   27.5810    2.8858 H         1 UNK         0.3121 
    106 H106       30.7466   29.2228    4.3704 H         1 UNK         0.0774 
    107 H107       29.0608   30.9426    5.0845 H         1 UNK         0.0815 
    108 H108       27.7516   29.8862    4.5736 H         1 UNK         0.0815 
    109 H109       28.7912   29.4276    5.9215 H         1 UNK         0.0815 
    110 H110       30.6467   28.2161    1.7969 H         1 UNK         0.2987 
    111 H111       29.1704   29.4502   -0.1426 H         1 UNK         0.0949 
    112 H112       31.9956   28.2855   -0.4176 H         1 UNK         0.0806 
    113 H113       30.4995   27.3566   -0.4102 H         1 UNK         0.0806 
    114 H114       30.8305   28.4786   -1.7203 H         1 UNK         0.0806 
    115 H115       32.1437   30.7024    1.2399 H         1 UNK         0.3010 
    116 H116       31.6063   33.3213    0.0207 H         1 UNK         0.0829 
    117 H117       34.3872   32.0176   -0.1105 H         1 UNK         0.0813 
    118 H118       34.0004   33.6718   -0.5696 H         1 UNK         0.0813 
    119 H119       33.3480   32.3333   -1.4998 H         1 UNK         0.0813 
    120 H120       30.8779   32.3070    2.4625 H         1 UNK         0.3038 
    121 H121       30.9450   32.4402    4.6555 H         1 UNK         0.0769 
    122 H122       31.1836   34.9216    4.3499 H         1 UNK         0.0811 
    123 H123       32.9331   34.7703    4.4152 H         1 UNK         0.0811 
    124 H124       31.9487   34.3636    5.8208 H         1 UNK         0.0811 
    125 H125       33.6997   33.3083    5.9326 H         1 UNK         0.3204 
    126 H126       35.5534   32.5083    6.7555 H         1 UNK         0.0748 
    127 H127       35.7683   30.8173    4.2111 H         1 UNK         0.0771 
    128 H128       36.3167   32.4813    4.3975 H         1 UNK         0.0771 
    129 H129       37.0818   31.1930    5.3151 H         1 UNK         0.0771 
    130 H130       33.7261   29.7036    5.5071 H         1 UNK         0.2980 
    131 H131       34.9493   27.8543    7.3577 H         1 UNK         0.0545 
    132 H132       31.7416   29.2164    9.3734 H         1 UNK         0.3459 
    133 H133       32.4025   30.0800    8.0066 H         1 UNK         0.3459 
    134 H134       32.5027   27.3673    5.6197 H         1 UNK         0.0616 
    135 H135       33.4950   26.1469    6.3740 H         1 UNK         0.0616 
    136 H136       33.8967   27.7817    2.3026 H         1 UNK         0.0634 
    137 H137       32.5538   27.8150    3.4061 H         1 UNK         0.0634 
@<TRIPOS>BOND
     1    1    2 1    
     2    1   72 1    
     3    1   73 1    
     4    1   74 1    
     5    2    3 2    
     6    2    4 am   BACKBONE|DICT|INTERRES
     7    4    5 1    
     8    4   75 1    
     9    5    6 1    
    10    5   35 1    
    11    5   76 1    
    12    6    7 1    
    13    6   77 1    
    14    6   78 1    
    15    7    8 1    
    16    8    9 1    
    17    8   79 1    
    18    8   80 1    
    19    9   10 ar   
    20    9   14 ar   
    21   10   11 ar   
    22   10   81 1    
    23   11   12 ar   
    24   11   71 1    
    25   12   13 ar   
    26   12   82 1    
    27   13   14 ar   
    28   13   15 1    
    29   14   83 1    
    30   15   16 1    
    31   15   84 1    
    32   15   85 1    
    33   16   17 1    
    34   17   18 1    
    35   17   86 1    
    36   17   87 1    
    37   18   19 1    
    38   18   37 1    
    39   18   88 1    
    40   19   20 am   BACKBONE|DICT|INTERRES
    41   19   89 1    
    42   20   21 2    
    43   20   22 1    
    44   22   23 1    
    45   22   24 1    
    46   22   90 1    
    47   23   91 1    
    48   23   92 1    
    49   23   93 1    
    50   24   25 am   BACKBONE|DICT|INTERRES
    51   24   94 1    
    52   25   26 2    
    53   25   27 1    
    54   27   28 1    
    55   27   29 1    
    56   27   95 1    
    57   28   96 1    
    58   28   97 1    
    59   28   98 1    
    60   29   30 am   BACKBONE|DICT|INTERRES
    61   29   99 1    
    62   30   31 2    
    63   30   32 1    
    64   32   33 1    
    65   32   34 1    
    66   32  100 1    
    67   33  101 1    
    68   33  102 1    
    69   33  103 1    
    70   34   35 am   BACKBONE|DICT|INTERRES
    71   34  104 1    
    72   35   36 2    
    73   37   38 2    
    74   37   39 am   BACKBONE|DICT|INTERRES
    75   39   40 1    
    76   39  105 1    
    77   40   41 1    
    78   40   42 1    
    79   40  106 1    
    80   41  107 1    
    81   41  108 1    
    82   41  109 1    
    83   42   43 2    
    84   42   44 am   BACKBONE|DICT|INTERRES
    85   44   45 1    
    86   44  110 1    
    87   45   46 1    
    88   45   47 1    
    89   45  111 1    
    90   46  112 1    
    91   46  113 1    
    92   46  114 1    
    93   47   48 2    
    94   47   49 am   BACKBONE|DICT|INTERRES
    95   49   50 1    
    96   49  115 1    
    97   50   51 1    
    98   50   52 1    
    99   50  116 1    
   100   51  117 1    
   101   51  118 1    
   102   51  119 1    
   103   52   53 2    
   104   52   54 am   BACKBONE|DICT|INTERRES
   105   54   55 1    
   106   54  120 1    
   107   55   56 1    
   108   55   57 1    
   109   55  121 1    
   110   56  122 1    
   111   56  123 1    
   112   56  124 1    
   113   57   58 2    
   114   57   59 am   BACKBONE|DICT|INTERRES
   115   59   60 1    
   116   59  125 1    
   117   60   61 1    
   118   60   62 1    
   119   60  126 1    
   120   61  127 1    
   121   61  128 1    
   122   61  129 1    
   123   62   63 2    
   124   62   64 am   BACKBONE|DICT|INTERRES
   125   64   65 1    
   126   64  130 1    
   127   65   66 1    
   128   65   69 1    
   129   65  131 1    
   130   66   67 am   BACKBONE|DICT|INTERRES
   131   66   68 2    
   132   67  132 1    
   133   67  133 1    
   134   69   70 1    
   135   69  134 1    
   136   69  135 1    
   137   70   71 1    
   138   71  136 1    
   139   71  137 1    
@<TRIPOS>SUBSTRUCTURE
     1 UNK         1 GROUP             0       ****    0 ROOT    
