@<TRIPOS>MOLECULE
3R136
137   139    1
SMALL
USER_CHARGES


@<TRIPOS>ATOM
      1 CA         32.2104   17.9024    0.4488 C.3       0 UNK        -0.1979 
      2 C          32.0121   19.4035    0.2958 C.2       0 UNK         0.4864 
      3 O          32.5868   20.0063   -0.6125 O.2       0 UNK        -0.5359 
      4 N          31.2122   20.0100    1.1819 N.am      1 UNK        -0.4318 
      5 CA         30.8670   21.4356    1.1614 C.3       1 UNK         0.0824 
      6 C6         30.2517   21.8961    2.5035 C.3       12 UNK        -0.0944 
      7 S7         31.4434   21.7840    3.8780 S.3       12 UNK        -0.2672 
      8 C8         30.3320   21.8925    5.3166 C.3       12 UNK         0.0333 
      9 C9         29.5114   23.1748    5.3042 C.ar      12 UNK        -0.0807 
     10 C10        30.1287   24.4051    5.5474 C.ar      12 UNK        -0.0894 
     11 C11        29.3908   25.5956    5.5042 C.ar      12 UNK        -0.0804 
     12 C12        28.0148   25.5282    5.2722 C.ar      12 UNK        -0.0824 
     13 C13        27.3825   24.3059    5.0253 C.ar      12 UNK        -0.0762 
     14 C14        28.1399   23.1316    5.0369 C.ar      12 UNK        -0.0782 
     15 C15        25.8817   24.2455    4.7671 C.3       12 UNK         0.0230 
     16 S16        25.4475   24.7328    3.0633 S.3       12 UNK        -0.2608 
     17 C17        25.4954   26.5533    3.1793 C.3       12 UNK        -0.0989 
     18 CA         26.6605   27.1585    2.3399 C.3       5 UNK         0.0716 
     19 N          26.4156   27.0861    0.8931 N.am      5 UNK        -0.4135 
     20 C          25.4483   27.7326    0.2187 C.2       4 UNK         0.5031 
     21 O          24.6025   28.4478    0.7594 O.2       4 UNK        -0.5229 
     22 CA         25.4185   27.5672   -1.3182 C.3       4 UNK         0.0329 
     23 CB         24.7868   28.7846   -2.0273 C.3       4 UNK        -0.2001 
     24 N          26.7231   27.2546   -1.9159 N.am      4 UNK        -0.4303 
     25 C          27.8584   27.9604   -1.7956 C.2       3 UNK         0.5044 
     26 O          27.9437   29.0136   -1.1637 O.2       3 UNK        -0.5152 
     27 CA         29.1175   27.3463   -2.4394 C.3       3 UNK         0.0319 
     28 CB         30.4155   27.9184   -1.8333 C.3       3 UNK        -0.2001 
     29 N          29.1444   25.8751   -2.4000 N.am      3 UNK        -0.4354 
     30 C          29.0401   25.0861   -1.3183 C.2       2 UNK         0.4964 
     31 O          28.8408   25.5088   -0.1764 O.2       2 UNK        -0.5047 
     32 CA         29.1582   23.5702   -1.5434 C.3       2 UNK         0.0288 
     33 CB         29.7255   23.1673   -2.9239 C.3       2 UNK        -0.2113 
     34 N          29.9861   23.0152   -0.4776 N.am      2 UNK        -0.4145 
     35 C          29.9137   21.7667   -0.0049 C.2       1 UNK         0.5006 
     36 O          29.1244   20.9149   -0.4250 O.2       1 UNK        -0.5103 
     37 C          27.0775   28.5778    2.8031 C.2       5 UNK         0.5055 
     38 O          26.7901   28.9580    3.9405 O.2       5 UNK        -0.5220 
     39 N          27.7569   29.3429    1.9330 N.am      6 UNK        -0.4450 
     40 CA         28.2359   30.7001    2.2053 C.3       6 UNK         0.0367 
     41 CB         28.6013   31.3862    0.8773 C.3       6 UNK        -0.1929 
     42 C          29.4149   30.7189    3.1948 C.2       6 UNK         0.5070 
     43 O          30.5709   30.8223    2.7810 O.2       6 UNK        -0.5237 
     44 N          29.1108   30.6486    4.4967 N.am      7 UNK        -0.4739 
     45 CA         30.0794   30.7343    5.5984 C.3       7 UNK         0.0276 
     46 CB         29.3460   30.5701    6.9381 C.3       7 UNK        -0.1927 
     47 C          30.9101   32.0307    5.5902 C.2       7 UNK         0.5013 
     48 O          32.0947   31.9938    5.9217 O.2       7 UNK        -0.5193 
     49 N          30.2988   33.1342    5.1350 N.am      8 UNK        -0.4253 
     50 CA         30.9467   34.4305    4.9079 C.3       8 UNK         0.0242 
     51 CB         29.8721   35.4758    4.5673 C.3       8 UNK        -0.2000 
     52 C          32.0364   34.4067    3.8166 C.2       8 UNK         0.4948 
     53 O          32.9264   35.2569    3.8454 O.2       8 UNK        -0.5275 
     54 N          31.9661   33.4344    2.8959 N.am      9 UNK        -0.4246 
     55 CA         32.9657   33.1760    1.8571 C.3       9 UNK         0.0261 
     56 CB         32.2358   32.8746    0.5348 C.3       9 UNK        -0.1959 
     57 C          33.9135   32.0227    2.2459 C.2       9 UNK         0.5033 
     58 O          34.6455   31.5398    1.3811 O.2       9 UNK        -0.5390 
     59 N          33.8840   31.5981    3.5204 N.am      10 UNK        -0.4215 
     60 CA         34.6091   30.4637    4.1040 C.3       10 UNK         0.0240 
     61 CB         36.1394   30.6552    4.0142 C.3       10 UNK        -0.1982 
     62 C          34.1278   29.0995    3.5709 C.2       10 UNK         0.4970 
     63 O          34.9319   28.1722    3.4558 O.2       10 UNK        -0.4916 
     64 N          32.8196   28.9957    3.2971 N.am      11 UNK        -0.4279 
     65 CA         32.1170   27.7879    2.8380 C.3       11 UNK         0.1003 
     66 C          32.5140   27.3731    1.3880 C.2       11 UNK         0.5709 
     67 N          32.2756   26.1297    0.9893 N.am      11 UNK        -0.7358 
     68 O          32.9981   28.1792    0.5962 O.2       11 UNK        -0.4999 
     69 C69        32.1632   26.6085    3.8598 C.3       12 UNK        -0.0954 
     70 S70        31.8341   27.0755    5.5969 S.3       12 UNK        -0.2268 
     71 C71        30.0145   26.9782    5.7039 C.3       12 UNK         0.0203 
     72 H72        33.2664   17.6761    0.5938 H         1 UNK         0.0888 
     73 H73        31.6584   17.5029    1.2995 H         1 UNK         0.0888 
     74 H74        31.8705   17.3860   -0.4485 H         1 UNK         0.0888 
     75 H75        30.7596   19.4634    1.8999 H         1 UNK         0.3017 
     76 H76        31.7915   21.9949    0.9989 H         1 UNK         0.0873 
     77 H77        29.9210   22.9354    2.4435 H         1 UNK         0.0745 
     78 H78        29.3655   21.3050    2.7432 H         1 UNK         0.0745 
     79 H79        30.9283   21.8532    6.2293 H         1 UNK         0.0705 
     80 H80        29.6843   21.0146    5.3358 H         1 UNK         0.0705 
     81 H81        31.1908   24.4228    5.7460 H         1 UNK         0.1334 
     82 H82        27.4396   26.4421    5.2774 H         1 UNK         0.1417 
     83 H83        27.6600   22.1818    4.8429 H         1 UNK         0.1562 
     84 H84        25.3510   24.8715    5.4859 H         1 UNK         0.0748 
     85 H85        25.5159   23.2312    4.9342 H         1 UNK         0.0748 
     86 H86        25.5550   26.8314    4.2306 H         1 UNK         0.0940 
     87 H87        24.5314   26.9444    2.8532 H         1 UNK         0.0940 
     88 H88        27.5481   26.5483    2.5158 H         1 UNK         0.0703 
     89 H89        27.0853   26.5299    0.3719 H         1 UNK         0.3081 
     90 H90        24.7801   26.7040   -1.5117 H         1 UNK         0.0719 
     91 H91        25.3411   29.7015   -1.8232 H         1 UNK         0.0809 
     92 H92        24.7572   28.6440   -3.1077 H         1 UNK         0.0809 
     93 H93        23.7599   28.9448   -1.6964 H         1 UNK         0.0809 
     94 H94        26.7678   26.3922   -2.4407 H         1 UNK         0.2990 
     95 H95        29.0890   27.6288   -3.4927 H         1 UNK         0.0690 
     96 H96        31.3009   27.4733   -2.2866 H         1 UNK         0.0788 
     97 H97        30.4633   27.7421   -0.7588 H         1 UNK         0.0788 
     98 H98        30.4810   28.9964   -1.9866 H         1 UNK         0.0788 
     99 H99        29.2913   25.4211   -3.2913 H         1 UNK         0.2993 
    100 H100       28.1473   23.1674   -1.4500 H         1 UNK         0.0949 
    101 H101       29.8065   22.0837   -3.0139 H         1 UNK         0.0767 
    102 H102       29.0777   23.4982   -3.7366 H         1 UNK         0.0767 
    103 H103       30.7198   23.5840   -3.0911 H         1 UNK         0.0767 
    104 H104       30.6006   23.6802   -0.0289 H         1 UNK         0.3013 
    105 H105       27.9315   28.9898    0.9983 H         1 UNK         0.3121 
    106 H106       27.4179   31.2691    2.6523 H         1 UNK         0.0774 
    107 H107       28.9644   32.4010    1.0454 H         1 UNK         0.0815 
    108 H108       29.3833   30.8436    0.3442 H         1 UNK         0.0815 
    109 H109       27.7367   31.4567    0.2171 H         1 UNK         0.0815 
    110 H110       28.1432   30.4715    4.7423 H         1 UNK         0.2987 
    111 H111       30.7800   29.9055    5.4850 H         1 UNK         0.0949 
    112 H112       28.6334   31.3776    7.1105 H         1 UNK         0.0806 
    113 H113       28.7991   29.6284    6.9809 H         1 UNK         0.0806 
    114 H114       30.0509   30.5728    7.7707 H         1 UNK         0.0806 
    115 H115       29.3231   33.0627    4.8847 H         1 UNK         0.3010 
    116 H116       31.4307   34.7262    5.8413 H         1 UNK         0.0829 
    117 H117       29.1401   35.5702    5.3697 H         1 UNK         0.0813 
    118 H118       30.3181   36.4609    4.4221 H         1 UNK         0.0813 
    119 H119       29.3376   35.2224    3.6508 H         1 UNK         0.0813 
    120 H120       31.2278   32.7416    2.9633 H         1 UNK         0.3038 
    121 H121       33.5847   34.0624    1.7051 H         1 UNK         0.0769 
    122 H122       32.9427   32.7841   -0.2908 H         1 UNK         0.0811 
    123 H123       31.5366   33.6692    0.2747 H         1 UNK         0.0811 
    124 H124       31.6787   31.9386    0.5867 H         1 UNK         0.0811 
    125 H125       33.2460   32.0594    4.1600 H         1 UNK         0.3204 
    126 H126       34.3500   30.4668    5.1639 H         1 UNK         0.0748 
    127 H127       36.6615   29.8979    4.6002 H         1 UNK         0.0771 
    128 H128       36.5009   30.5745    2.9888 H         1 UNK         0.0771 
    129 H129       36.4413   31.6280    4.4023 H         1 UNK         0.0771 
    130 H130       32.2430   29.8289    3.3226 H         1 UNK         0.2980 
    131 H131       31.0737   28.0922    2.7558 H         1 UNK         0.0545 
    132 H132       31.8776   25.4535    1.6188 H         1 UNK         0.3459 
    133 H133       32.5301   25.8687    0.0507 H         1 UNK         0.3459 
    134 H134       31.4534   25.8340    3.5688 H         1 UNK         0.0616 
    135 H135       33.1455   26.1340    3.8383 H         1 UNK         0.0616 
    136 H136       29.7166   27.3466    6.6859 H         1 UNK         0.0634 
    137 H137       29.5965   27.6717    4.9724 H         1 UNK         0.0634 
@<TRIPOS>BOND
     1    1    2 1    
     2    1   72 1    
     3    1   73 1    
     4    1   74 1    
     5    2    3 2    
     6    2    4 am   BACKBONE|DICT|INTERRES
     7    4    5 1    
     8    4   75 1    
     9    5    6 1    
    10    5   35 1    
    11    5   76 1    
    12    6    7 1    
    13    6   77 1    
    14    6   78 1    
    15    7    8 1    
    16    8    9 1    
    17    8   79 1    
    18    8   80 1    
    19    9   10 ar   
    20    9   14 ar   
    21   10   11 ar   
    22   10   81 1    
    23   11   12 ar   
    24   11   71 1    
    25   12   13 ar   
    26   12   82 1    
    27   13   14 ar   
    28   13   15 1    
    29   14   83 1    
    30   15   16 1    
    31   15   84 1    
    32   15   85 1    
    33   16   17 1    
    34   17   18 1    
    35   17   86 1    
    36   17   87 1    
    37   18   19 1    
    38   18   37 1    
    39   18   88 1    
    40   19   20 am   BACKBONE|DICT|INTERRES
    41   19   89 1    
    42   20   21 2    
    43   20   22 1    
    44   22   23 1    
    45   22   24 1    
    46   22   90 1    
    47   23   91 1    
    48   23   92 1    
    49   23   93 1    
    50   24   25 am   BACKBONE|DICT|INTERRES
    51   24   94 1    
    52   25   26 2    
    53   25   27 1    
    54   27   28 1    
    55   27   29 1    
    56   27   95 1    
    57   28   96 1    
    58   28   97 1    
    59   28   98 1    
    60   29   30 am   BACKBONE|DICT|INTERRES
    61   29   99 1    
    62   30   31 2    
    63   30   32 1    
    64   32   33 1    
    65   32   34 1    
    66   32  100 1    
    67   33  101 1    
    68   33  102 1    
    69   33  103 1    
    70   34   35 am   BACKBONE|DICT|INTERRES
    71   34  104 1    
    72   35   36 2    
    73   37   38 2    
    74   37   39 am   BACKBONE|DICT|INTERRES
    75   39   40 1    
    76   39  105 1    
    77   40   41 1    
    78   40   42 1    
    79   40  106 1    
    80   41  107 1    
    81   41  108 1    
    82   41  109 1    
    83   42   43 2    
    84   42   44 am   BACKBONE|DICT|INTERRES
    85   44   45 1    
    86   44  110 1    
    87   45   46 1    
    88   45   47 1    
    89   45  111 1    
    90   46  112 1    
    91   46  113 1    
    92   46  114 1    
    93   47   48 2    
    94   47   49 am   BACKBONE|DICT|INTERRES
    95   49   50 1    
    96   49  115 1    
    97   50   51 1    
    98   50   52 1    
    99   50  116 1    
   100   51  117 1    
   101   51  118 1    
   102   51  119 1    
   103   52   53 2    
   104   52   54 am   BACKBONE|DICT|INTERRES
   105   54   55 1    
   106   54  120 1    
   107   55   56 1    
   108   55   57 1    
   109   55  121 1    
   110   56  122 1    
   111   56  123 1    
   112   56  124 1    
   113   57   58 2    
   114   57   59 am   BACKBONE|DICT|INTERRES
   115   59   60 1    
   116   59  125 1    
   117   60   61 1    
   118   60   62 1    
   119   60  126 1    
   120   61  127 1    
   121   61  128 1    
   122   61  129 1    
   123   62   63 2    
   124   62   64 am   BACKBONE|DICT|INTERRES
   125   64   65 1    
   126   64  130 1    
   127   65   66 1    
   128   65   69 1    
   129   65  131 1    
   130   66   67 am   BACKBONE|DICT|INTERRES
   131   66   68 2    
   132   67  132 1    
   133   67  133 1    
   134   69   70 1    
   135   69  134 1    
   136   69  135 1    
   137   70   71 1    
   138   71  136 1    
   139   71  137 1    
@<TRIPOS>SUBSTRUCTURE
     1 UNK         1 GROUP             0       ****    0 ROOT    
