@<TRIPOS>MOLECULE
3R136
137   139    1
SMALL
USER_CHARGES


@<TRIPOS>ATOM
      1 CA         27.2839   22.1238   -0.4353 C.3       0 UNK        -0.1979 
      2 C          27.7956   23.4065   -1.0697 C.2       0 UNK         0.4864 
      3 O          27.1401   23.9544   -1.9581 O.2       0 UNK        -0.5359 
      4 N          28.9634   23.8930   -0.6280 N.am      1 UNK        -0.4318 
      5 CA         29.5858   25.1287   -1.1177 C.3       1 UNK         0.0824 
      6 C6         31.0505   25.2869   -0.6489 C.3       12 UNK        -0.0944 
      7 S7         32.0719   23.8852   -1.2232 S.3       12 UNK        -0.2672 
      8 C8         33.3736   23.7687    0.0489 C.3       12 UNK         0.0333 
      9 C9         32.8361   23.6281    1.4688 C.ar      12 UNK        -0.0807 
     10 C10        33.3477   24.4407    2.4845 C.ar      12 UNK        -0.0894 
     11 C11        32.8781   24.3277    3.7965 C.ar      12 UNK        -0.0804 
     12 C12        31.8853   23.3869    4.0878 C.ar      12 UNK        -0.0824 
     13 C13        31.3716   22.5577    3.0842 C.ar      12 UNK        -0.0762 
     14 C14        31.8563   22.6785    1.7788 C.ar      12 UNK        -0.0782 
     15 C15        30.3219   21.5038    3.4141 C.3       12 UNK         0.0230 
     16 S16        28.6431   22.0145    2.9222 S.3       12 UNK        -0.2608 
     17 C17        28.3555   23.4355    4.0251 C.3       12 UNK        -0.0989 
     18 CA         28.3555   24.7751    3.2266 C.3       5 UNK         0.0716 
     19 N          27.0225   25.2237    2.7960 N.am      5 UNK        -0.4135 
     20 C          26.0032   25.5641    3.6021 C.2       4 UNK         0.5031 
     21 O          25.9949   25.3679    4.8181 O.2       4 UNK        -0.5229 
     22 CA         24.7950   26.2893    2.9809 C.3       4 UNK         0.0329 
     23 CB         24.7412   27.7456    3.4747 C.3       4 UNK        -0.2001 
     24 N          24.7749   26.3030    1.5190 N.am      4 UNK        -0.4303 
     25 C          24.4296   25.2829    0.7274 C.2       3 UNK         0.5044 
     26 O          24.1353   24.1639    1.1468 O.2       3 UNK        -0.5152 
     27 CA         24.4147   25.5494   -0.7896 C.3       3 UNK         0.0319 
     28 CB         23.0688   26.1516   -1.2380 C.3       3 UNK        -0.2001 
     29 N          25.5570   26.3374   -1.2787 N.am      3 UNK        -0.4354 
     30 C          25.8703   27.6239   -1.0450 C.2       2 UNK         0.4964 
     31 O          25.1664   28.3828   -0.3768 O.2       2 UNK        -0.5047 
     32 CA         27.2145   28.1331   -1.6126 C.3       2 UNK         0.0288 
     33 CB         27.7643   29.3466   -0.8321 C.3       2 UNK        -0.2113 
     34 N          28.2300   27.0756   -1.7184 N.am      2 UNK        -0.4145 
     35 C          28.7244   26.3380   -0.7125 C.2       1 UNK         0.5006 
     36 O          28.4758   26.5305    0.4810 O.2       1 UNK        -0.5103 
     37 C          29.0752   25.9460    3.9283 C.2       5 UNK         0.5055 
     38 O          29.4497   25.8564    5.0989 O.2       5 UNK        -0.5220 
     39 N          29.2059   27.0478    3.1824 N.am      6 UNK        -0.4450 
     40 CA         29.8229   28.2940    3.6099 C.3       6 UNK         0.0367 
     41 CB         28.7756   29.1943    4.2936 C.3       6 UNK        -0.1929 
     42 C          30.4549   28.9404    2.3737 C.2       6 UNK         0.5070 
     43 O          29.8948   29.8868    1.8155 O.2       6 UNK        -0.5237 
     44 N          31.5835   28.3709    1.9298 N.am      7 UNK        -0.4739 
     45 CA         32.3402   28.7780    0.7428 C.3       7 UNK         0.0276 
     46 CB         33.5951   27.8994    0.6215 C.3       7 UNK        -0.1927 
     47 C          32.7174   30.2685    0.7793 C.2       7 UNK         0.5013 
     48 O          33.4622   30.6836    1.6682 O.2       7 UNK        -0.5193 
     49 N          32.1463   31.0490   -0.1508 N.am      8 UNK        -0.4253 
     50 CA         32.2587   32.5115   -0.2627 C.3       8 UNK         0.0242 
     51 CB         33.6820   32.9080   -0.7114 C.3       8 UNK        -0.2000 
     52 C          31.8060   33.2689    1.0066 C.2       8 UNK         0.4948 
     53 O          32.3232   34.3521    1.2842 O.2       8 UNK        -0.5275 
     54 N          30.8694   32.6726    1.7627 N.am      9 UNK        -0.4246 
     55 CA         30.3608   33.1037    3.0711 C.3       9 UNK         0.0261 
     56 CB         29.6849   34.4896    2.9913 C.3       9 UNK        -0.1959 
     57 C          31.3917   33.0104    4.2173 C.2       9 UNK         0.5033 
     58 O          31.1219   33.5260    5.3042 O.2       9 UNK        -0.5390 
     59 N          32.5252   32.3336    3.9876 N.am      10 UNK        -0.4215 
     60 CA         33.4910   31.9374    5.0123 C.3       10 UNK         0.0240 
     61 CB         34.9108   32.0769    4.4315 C.3       10 UNK        -0.1982 
     62 C          33.1980   30.4919    5.4534 C.2       10 UNK         0.4970 
     63 O          32.2301   29.8962    4.9845 O.2       10 UNK        -0.4916 
     64 N          34.0295   29.9659    6.3603 N.am      11 UNK        -0.4279 
     65 CA         34.0403   28.5812    6.8738 C.3       11 UNK         0.1003 
     66 C          32.7691   28.0781    7.6264 C.2       11 UNK         0.5709 
     67 N          31.7680   28.9116    7.8792 N.am      11 UNK        -0.7358 
     68 O          32.7173   26.9243    8.0461 O.2       11 UNK        -0.4999 
     69 C69        34.6372   27.5570    5.8598 C.3       12 UNK        -0.0954 
     70 S70        33.5228   26.9480    4.5408 S.3       12 UNK        -0.2268 
     71 C71        33.4950   25.1641    4.9123 C.3       12 UNK         0.0203 
     72 H72        26.7761   21.5096   -1.1784 H         1 UNK         0.0888 
     73 H73        28.0972   21.5340   -0.0137 H         1 UNK         0.0888 
     74 H74        26.5748   22.3554    0.3596 H         1 UNK         0.0888 
     75 H75        29.4645   23.4099    0.1026 H         1 UNK         0.3017 
     76 H76        29.5989   25.0686   -2.2086 H         1 UNK         0.0873 
     77 H77        31.0956   25.3739    0.4380 H         1 UNK         0.0745 
     78 H78        31.4840   26.2039   -1.0511 H         1 UNK         0.0745 
     79 H79        34.0204   24.6423   -0.0387 H         1 UNK         0.0705 
     80 H80        33.9998   22.9037   -0.1729 H         1 UNK         0.0705 
     81 H81        34.1267   25.1566    2.2601 H         1 UNK         0.1334 
     82 H82        31.5273   23.2856    5.1032 H         1 UNK         0.1417 
     83 H83        31.4720   22.0305    1.0027 H         1 UNK         0.1562 
     84 H84        30.3312   21.2690    4.4798 H         1 UNK         0.0748 
     85 H85        30.5691   20.5737    2.9001 H         1 UNK         0.0748 
     86 H86        29.1147   23.4172    4.8068 H         1 UNK         0.0940 
     87 H87        27.4152   23.2724    4.5506 H         1 UNK         0.0940 
     88 H88        28.9310   24.6200    2.3127 H         1 UNK         0.0703 
     89 H89        26.9525   25.4779    1.8198 H         1 UNK         0.3081 
     90 H90        23.8966   25.7759    3.3301 H         1 UNK         0.0719 
     91 H91        25.6126   28.3136    3.1456 H         1 UNK         0.0809 
     92 H92        23.8503   28.2565    3.1090 H         1 UNK         0.0809 
     93 H93        24.7140   27.7921    4.5643 H         1 UNK         0.0809 
     94 H94        24.9763   27.1890    1.0614 H         1 UNK         0.2990 
     95 H95        24.5087   24.5755   -1.2729 H         1 UNK         0.0690 
     96 H96        23.0348   26.2837   -2.3193 H         1 UNK         0.0788 
     97 H97        22.8764   27.1198   -0.7751 H         1 UNK         0.0788 
     98 H98        22.2415   25.4950   -0.9655 H         1 UNK         0.0788 
     99 H99        26.2366   25.7768   -1.7846 H         1 UNK         0.2993 
    100 H100       27.0050   28.4624   -2.6315 H         1 UNK         0.0949 
    101 H101       28.7340   29.6642   -1.2146 H         1 UNK         0.0767 
    102 H102       27.0898   30.2000   -0.9094 H         1 UNK         0.0767 
    103 H103       27.8797   29.1239    0.2290 H         1 UNK         0.0767 
    104 H104       28.4842   26.8192   -2.6630 H         1 UNK         0.3013 
    105 H105       28.9036   27.0153    2.2085 H         1 UNK         0.3121 
    106 H106       30.6173   28.0734    4.3246 H         1 UNK         0.0774 
    107 H107       29.2279   30.1346    4.6110 H         1 UNK         0.0815 
    108 H108       27.9484   29.4336    3.6246 H         1 UNK         0.0815 
    109 H109       28.3627   28.7164    5.1819 H         1 UNK         0.0815 
    110 H110       31.9907   27.6349    2.4904 H         1 UNK         0.2987 
    111 H111       31.7062   28.5930   -0.1265 H         1 UNK         0.0949 
    112 H112       34.1728   28.1615   -0.2657 H         1 UNK         0.0806 
    113 H113       34.2517   28.0142    1.4854 H         1 UNK         0.0806 
    114 H114       33.3336   26.8462    0.5391 H         1 UNK         0.0806 
    115 H115       31.5183   30.6145   -0.8130 H         1 UNK         0.3010 
    116 H116       31.5677   32.8124   -1.0515 H         1 UNK         0.0829 
    117 H117       33.9767   32.3753   -1.6154 H         1 UNK         0.0813 
    118 H118       33.7416   33.9744   -0.9327 H         1 UNK         0.0813 
    119 H119       34.4224   32.6947    0.0604 H         1 UNK         0.0813 
    120 H120       30.5364   31.7559    1.4725 H         1 UNK         0.3038 
    121 H121       29.5834   32.3816    3.3245 H         1 UNK         0.0769 
    122 H122       29.1538   34.7183    3.9160 H         1 UNK         0.0811 
    123 H123       28.9552   34.5301    2.1827 H         1 UNK         0.0811 
    124 H124       30.4098   35.2880    2.8319 H         1 UNK         0.0811 
    125 H125       32.6493   31.8785    3.0876 H         1 UNK         0.3204 
    126 H126       33.4043   32.5869    5.8857 H         1 UNK         0.0748 
    127 H127       35.6716   31.9266    5.1978 H         1 UNK         0.0771 
    128 H128       35.0982   31.3502    3.6401 H         1 UNK         0.0771 
    129 H129       35.0708   33.0712    4.0138 H         1 UNK         0.0771 
    130 H130       34.7656   30.5539    6.7225 H         1 UNK         0.2980 
    131 H131       34.7749   28.6410    7.6777 H         1 UNK         0.0545 
    132 H132       30.9625   28.5767    8.3827 H         1 UNK         0.3459 
    133 H133       31.7850   29.8487    7.5112 H         1 UNK         0.3459 
    134 H134       35.5114   27.9923    5.3736 H         1 UNK         0.0616 
    135 H135       35.0232   26.7003    6.4142 H         1 UNK         0.0616 
    136 H136       32.9601   25.0156    5.8518 H         1 UNK         0.0634 
    137 H137       34.5153   24.8134    5.0723 H         1 UNK         0.0634 
@<TRIPOS>BOND
     1    1    2 1    
     2    1   72 1    
     3    1   73 1    
     4    1   74 1    
     5    2    3 2    
     6    2    4 am   BACKBONE|DICT|INTERRES
     7    4    5 1    
     8    4   75 1    
     9    5    6 1    
    10    5   35 1    
    11    5   76 1    
    12    6    7 1    
    13    6   77 1    
    14    6   78 1    
    15    7    8 1    
    16    8    9 1    
    17    8   79 1    
    18    8   80 1    
    19    9   10 ar   
    20    9   14 ar   
    21   10   11 ar   
    22   10   81 1    
    23   11   12 ar   
    24   11   71 1    
    25   12   13 ar   
    26   12   82 1    
    27   13   14 ar   
    28   13   15 1    
    29   14   83 1    
    30   15   16 1    
    31   15   84 1    
    32   15   85 1    
    33   16   17 1    
    34   17   18 1    
    35   17   86 1    
    36   17   87 1    
    37   18   19 1    
    38   18   37 1    
    39   18   88 1    
    40   19   20 am   BACKBONE|DICT|INTERRES
    41   19   89 1    
    42   20   21 2    
    43   20   22 1    
    44   22   23 1    
    45   22   24 1    
    46   22   90 1    
    47   23   91 1    
    48   23   92 1    
    49   23   93 1    
    50   24   25 am   BACKBONE|DICT|INTERRES
    51   24   94 1    
    52   25   26 2    
    53   25   27 1    
    54   27   28 1    
    55   27   29 1    
    56   27   95 1    
    57   28   96 1    
    58   28   97 1    
    59   28   98 1    
    60   29   30 am   BACKBONE|DICT|INTERRES
    61   29   99 1    
    62   30   31 2    
    63   30   32 1    
    64   32   33 1    
    65   32   34 1    
    66   32  100 1    
    67   33  101 1    
    68   33  102 1    
    69   33  103 1    
    70   34   35 am   BACKBONE|DICT|INTERRES
    71   34  104 1    
    72   35   36 2    
    73   37   38 2    
    74   37   39 am   BACKBONE|DICT|INTERRES
    75   39   40 1    
    76   39  105 1    
    77   40   41 1    
    78   40   42 1    
    79   40  106 1    
    80   41  107 1    
    81   41  108 1    
    82   41  109 1    
    83   42   43 2    
    84   42   44 am   BACKBONE|DICT|INTERRES
    85   44   45 1    
    86   44  110 1    
    87   45   46 1    
    88   45   47 1    
    89   45  111 1    
    90   46  112 1    
    91   46  113 1    
    92   46  114 1    
    93   47   48 2    
    94   47   49 am   BACKBONE|DICT|INTERRES
    95   49   50 1    
    96   49  115 1    
    97   50   51 1    
    98   50   52 1    
    99   50  116 1    
   100   51  117 1    
   101   51  118 1    
   102   51  119 1    
   103   52   53 2    
   104   52   54 am   BACKBONE|DICT|INTERRES
   105   54   55 1    
   106   54  120 1    
   107   55   56 1    
   108   55   57 1    
   109   55  121 1    
   110   56  122 1    
   111   56  123 1    
   112   56  124 1    
   113   57   58 2    
   114   57   59 am   BACKBONE|DICT|INTERRES
   115   59   60 1    
   116   59  125 1    
   117   60   61 1    
   118   60   62 1    
   119   60  126 1    
   120   61  127 1    
   121   61  128 1    
   122   61  129 1    
   123   62   63 2    
   124   62   64 am   BACKBONE|DICT|INTERRES
   125   64   65 1    
   126   64  130 1    
   127   65   66 1    
   128   65   69 1    
   129   65  131 1    
   130   66   67 am   BACKBONE|DICT|INTERRES
   131   66   68 2    
   132   67  132 1    
   133   67  133 1    
   134   69   70 1    
   135   69  134 1    
   136   69  135 1    
   137   70   71 1    
   138   71  136 1    
   139   71  137 1    
@<TRIPOS>SUBSTRUCTURE
     1 UNK         1 GROUP             0       ****    0 ROOT    
