@<TRIPOS>MOLECULE
3R136
137   139    1
SMALL
USER_CHARGES


@<TRIPOS>ATOM
      1 CA         28.2349   18.1755   -2.3236 C.3       0 UNK        -0.1979 
      2 C          28.4586   19.6313   -1.9428 C.2       0 UNK         0.4864 
      3 O          27.4972   20.3991   -1.8793 O.2       0 UNK        -0.5359 
      4 N          29.7216   20.0194   -1.7128 N.am      1 UNK        -0.4318 
      5 CA         30.2139   21.3399   -1.2743 C.3       1 UNK         0.0824 
      6 C6         29.6438   21.8166    0.0905 C.3       12 UNK        -0.0944 
      7 S7         29.8748   20.5792    1.4114 S.3       12 UNK        -0.2672 
      8 C8         31.3791   21.1890    2.2411 C.3       12 UNK         0.0333 
      9 C9         31.1226   22.3665    3.1766 C.ar      12 UNK        -0.0807 
     10 C10        31.9457   23.4963    3.1259 C.ar      12 UNK        -0.0894 
     11 C11        31.7695   24.5498    4.0304 C.ar      12 UNK        -0.0804 
     12 C12        30.7516   24.4698    4.9861 C.ar      12 UNK        -0.0824 
     13 C13        29.9052   23.3600    5.0300 C.ar      12 UNK        -0.0762 
     14 C14        30.1025   22.3078    4.1319 C.ar      12 UNK        -0.0782 
     15 C15        28.7790   23.2893    6.0478 C.3       12 UNK         0.0230 
     16 S16        27.2754   24.0973    5.4151 S.3       12 UNK        -0.2608 
     17 C17        27.4268   25.7988    6.0655 C.3       12 UNK        -0.0989 
     18 CA         27.8083   26.8707    5.0047 C.3       5 UNK         0.0716 
     19 N          26.9353   26.8052    3.8263 N.am      5 UNK        -0.4135 
     20 C          27.2262   27.2870    2.6125 C.2       4 UNK         0.5031 
     21 O          28.2788   27.8692    2.3401 O.2       4 UNK        -0.5229 
     22 CA         26.1257   27.1627    1.5471 C.3       4 UNK         0.0329 
     23 CB         25.1420   28.3394    1.6633 C.3       4 UNK        -0.2001 
     24 N          26.6996   27.1566    0.2011 N.am      4 UNK        -0.4303 
     25 C          27.3024   26.1014   -0.3575 C.2       3 UNK         0.5044 
     26 O          27.3426   24.9757    0.1487 O.2       3 UNK        -0.5152 
     27 CA         27.9848   26.3520   -1.7071 C.3       3 UNK         0.0319 
     28 CB         29.3429   27.0526   -1.5108 C.3       3 UNK        -0.2001 
     29 N          28.1716   25.0675   -2.3709 N.am      3 UNK        -0.4354 
     30 C          28.4359   24.8722   -3.6674 C.2       2 UNK         0.4964 
     31 O          28.5458   25.7893   -4.4834 O.2       2 UNK        -0.5047 
     32 CA         28.5797   23.4091   -4.1375 C.3       2 UNK         0.0288 
     33 CB         29.5217   23.2633   -5.3523 C.3       2 UNK        -0.2113 
     34 N          28.9562   22.4728   -3.0688 N.am      2 UNK        -0.4145 
     35 C          30.0839   22.4484   -2.3428 C.2       1 UNK         0.5006 
     36 O          31.0097   23.2483   -2.4863 O.2       1 UNK        -0.5103 
     37 C          27.7998   28.2965    5.6123 C.2       5 UNK         0.5055 
     38 O          27.3924   28.4684    6.7635 O.2       5 UNK        -0.5220 
     39 N          28.1951   29.3005    4.8216 N.am      6 UNK        -0.4450 
     40 CA         28.1127   30.7206    5.1549 C.3       6 UNK         0.0367 
     41 CB         27.0288   31.3625    4.2710 C.3       6 UNK        -0.1929 
     42 C          29.4565   31.4172    4.9231 C.2       6 UNK         0.5070 
     43 O          30.2595   30.9705    4.0998 O.2       6 UNK        -0.5237 
     44 N          29.6406   32.5608    5.5966 N.am      7 UNK        -0.4739 
     45 CA         30.8064   33.4427    5.4598 C.3       7 UNK         0.0276 
     46 CB         30.7178   34.5723    6.4974 C.3       7 UNK        -0.1927 
     47 C          30.9805   34.0221    4.0443 C.2       7 UNK         0.5013 
     48 O          32.1096   34.3024    3.6449 O.2       7 UNK        -0.5193 
     49 N          29.8798   34.1219    3.2841 N.am      8 UNK        -0.4253 
     50 CA         29.8635   34.4639    1.8577 C.3       8 UNK         0.0242 
     51 CB         28.4060   34.6154    1.3930 C.3       8 UNK        -0.2000 
     52 C          30.6082   33.4473    0.9682 C.2       8 UNK         0.4948 
     53 O          31.1061   33.8314   -0.0902 O.2       8 UNK        -0.5275 
     54 N          30.6961   32.1881    1.4205 N.am      9 UNK        -0.4246 
     55 CA         31.4793   31.1169    0.8010 C.3       9 UNK         0.0261 
     56 CB         30.6414   29.8274    0.8279 C.3       9 UNK        -0.1959 
     57 C          32.8317   30.9077    1.5124 C.2       9 UNK         0.5033 
     58 O          33.5259   29.9400    1.1990 O.2       9 UNK        -0.5390 
     59 N          33.1760   31.7956    2.4603 N.am      10 UNK        -0.4215 
     60 CA         34.3392   31.7620    3.3547 C.3       10 UNK         0.0240 
     61 CB         35.6616   31.8423    2.5613 C.3       10 UNK        -0.1982 
     62 C          34.3185   30.5998    4.3687 C.2       10 UNK         0.4970 
     63 O          35.3701   30.2695    4.9206 O.2       10 UNK        -0.4916 
     64 N          33.1416   30.0108    4.6190 N.am      11 UNK        -0.4279 
     65 CA         32.9489   28.9451    5.6108 C.3       11 UNK         0.1003 
     66 C          32.8608   29.5078    7.0548 C.2       11 UNK         0.5709 
     67 N          33.2094   28.7062    8.0521 N.am      11 UNK        -0.7358 
     68 O          32.4521   30.6448    7.2850 O.2       11 UNK        -0.4999 
     69 C69        31.7191   28.0619    5.2809 C.3       12 UNK        -0.0954 
     70 S70        31.8230   27.3045    3.6237 S.3       12 UNK        -0.2268 
     71 C71        32.7027   25.7531    3.9905 C.3       12 UNK         0.0203 
     72 H72        27.5721   17.6984   -1.6021 H         1 UNK         0.0888 
     73 H73        27.7710   18.1118   -3.3074 H         1 UNK         0.0888 
     74 H74        29.1675   17.6122   -2.3506 H         1 UNK         0.0888 
     75 H75        30.4513   19.3286   -1.8214 H         1 UNK         0.3017 
     76 H76        31.2871   21.1994   -1.1345 H         1 UNK         0.0873 
     77 H77        30.1094   22.7554    0.3979 H         1 UNK         0.0745 
     78 H78        28.5758   22.0274    0.0109 H         1 UNK         0.0745 
     79 H79        32.1245   21.4416    1.4853 H         1 UNK         0.0705 
     80 H80        31.8033   20.3733    2.8279 H         1 UNK         0.0705 
     81 H81        32.7415   23.5458    2.3951 H         1 UNK         0.1334 
     82 H82        30.6083   25.2743    5.6917 H         1 UNK         0.1417 
     83 H83        29.4603   21.4385    4.1764 H         1 UNK         0.1562 
     84 H84        29.0888   23.7283    6.9970 H         1 UNK         0.0748 
     85 H85        28.5439   22.2465    6.2664 H         1 UNK         0.0748 
     86 H86        28.1442   25.8144    6.8877 H         1 UNK         0.0940 
     87 H87        26.4622   26.0417    6.5163 H         1 UNK         0.0940 
     88 H88        28.8302   26.6686    4.6780 H         1 UNK         0.0703 
     89 H89        26.0407   26.3610    3.9721 H         1 UNK         0.3081 
     90 H90        25.5819   26.2286    1.7054 H         1 UNK         0.0719 
     91 H91        25.6426   29.2995    1.5287 H         1 UNK         0.0809 
     92 H92        24.3473   28.2677    0.9204 H         1 UNK         0.0809 
     93 H93        24.6648   28.3578    2.6441 H         1 UNK         0.0809 
     94 H94        26.7568   28.0503   -0.2648 H         1 UNK         0.2990 
     95 H95        27.3302   26.9757   -2.3195 H         1 UNK         0.0690 
     96 H96        29.8401   27.2429   -2.4619 H         1 UNK         0.0788 
     97 H97        30.0166   26.4561   -0.8939 H         1 UNK         0.0788 
     98 H98        29.2147   28.0158   -1.0180 H         1 UNK         0.0788 
     99 H99        28.0512   24.2706   -1.7575 H         1 UNK         0.2993 
    100 H100       27.5824   23.1065   -4.4601 H         1 UNK         0.0949 
    101 H101       29.5954   22.2245   -5.6745 H         1 UNK         0.0767 
    102 H102       29.1564   23.8389   -6.2037 H         1 UNK         0.0767 
    103 H103       30.5283   23.6183   -5.1290 H         1 UNK         0.0767 
    104 H104       28.2554   21.7761   -2.8183 H         1 UNK         0.3013 
    105 H105       28.5490   29.0742    3.8947 H         1 UNK         0.3121 
    106 H106       27.8413   30.8541    6.2042 H         1 UNK         0.0774 
    107 H107       26.9071   32.4224    4.4969 H         1 UNK         0.0815 
    108 H108       27.2711   31.2776    3.2104 H         1 UNK         0.0815 
    109 H109       26.0600   30.8878    4.4286 H         1 UNK         0.0815 
    110 H110       28.9270   32.8600    6.2466 H         1 UNK         0.2987 
    111 H111       31.6963   32.8469    5.6758 H         1 UNK         0.0949 
    112 H112       29.8296   35.1884    6.3515 H         1 UNK         0.0806 
    113 H113       30.6913   34.1764    7.5128 H         1 UNK         0.0806 
    114 H114       31.5856   35.2306    6.4322 H         1 UNK         0.0806 
    115 H115       28.9949   33.8788    3.7039 H         1 UNK         0.3010 
    116 H116       30.3651   35.4272    1.7419 H         1 UNK         0.0829 
    117 H117       27.8876   35.3922    1.9555 H         1 UNK         0.0813 
    118 H118       28.3599   34.8962    0.3397 H         1 UNK         0.0813 
    119 H119       27.8463   33.6859    1.5068 H         1 UNK         0.0813 
    120 H120       30.2829   31.9535    2.3178 H         1 UNK         0.3038 
    121 H121       31.6947   31.3615   -0.2411 H         1 UNK         0.0769 
    122 H122       31.1495   29.0159    0.3058 H         1 UNK         0.0811 
    123 H123       29.6742   29.9711    0.3470 H         1 UNK         0.0811 
    124 H124       30.4574   29.4878    1.8477 H         1 UNK         0.0811 
    125 H125       32.5530   32.5794    2.6224 H         1 UNK         0.3204 
    126 H126       34.2720   32.6693    3.9563 H         1 UNK         0.0748 
    127 H127       36.5103   31.9958    3.2289 H         1 UNK         0.0771 
    128 H128       35.8546   30.9281    1.9994 H         1 UNK         0.0771 
    129 H129       35.6519   32.6744    1.8573 H         1 UNK         0.0771 
    130 H130       32.2987   30.3513    4.1719 H         1 UNK         0.2980 
    131 H131       33.8279   28.2984    5.5742 H         1 UNK         0.0545 
    132 H132       33.1479   29.0501    8.9976 H         1 UNK         0.3459 
    133 H133       33.5423   27.7704    7.8811 H         1 UNK         0.3459 
    134 H134       31.5998   27.2770    6.0281 H         1 UNK         0.0616 
    135 H135       30.8084   28.6564    5.3237 H         1 UNK         0.0616 
    136 H136       33.4682   25.6157    3.2254 H         1 UNK         0.0634 
    137 H137       33.2368   25.8321    4.9381 H         1 UNK         0.0634 
@<TRIPOS>BOND
     1    1    2 1    
     2    1   72 1    
     3    1   73 1    
     4    1   74 1    
     5    2    3 2    
     6    2    4 am   BACKBONE|DICT|INTERRES
     7    4    5 1    
     8    4   75 1    
     9    5    6 1    
    10    5   35 1    
    11    5   76 1    
    12    6    7 1    
    13    6   77 1    
    14    6   78 1    
    15    7    8 1    
    16    8    9 1    
    17    8   79 1    
    18    8   80 1    
    19    9   10 ar   
    20    9   14 ar   
    21   10   11 ar   
    22   10   81 1    
    23   11   12 ar   
    24   11   71 1    
    25   12   13 ar   
    26   12   82 1    
    27   13   14 ar   
    28   13   15 1    
    29   14   83 1    
    30   15   16 1    
    31   15   84 1    
    32   15   85 1    
    33   16   17 1    
    34   17   18 1    
    35   17   86 1    
    36   17   87 1    
    37   18   19 1    
    38   18   37 1    
    39   18   88 1    
    40   19   20 am   BACKBONE|DICT|INTERRES
    41   19   89 1    
    42   20   21 2    
    43   20   22 1    
    44   22   23 1    
    45   22   24 1    
    46   22   90 1    
    47   23   91 1    
    48   23   92 1    
    49   23   93 1    
    50   24   25 am   BACKBONE|DICT|INTERRES
    51   24   94 1    
    52   25   26 2    
    53   25   27 1    
    54   27   28 1    
    55   27   29 1    
    56   27   95 1    
    57   28   96 1    
    58   28   97 1    
    59   28   98 1    
    60   29   30 am   BACKBONE|DICT|INTERRES
    61   29   99 1    
    62   30   31 2    
    63   30   32 1    
    64   32   33 1    
    65   32   34 1    
    66   32  100 1    
    67   33  101 1    
    68   33  102 1    
    69   33  103 1    
    70   34   35 am   BACKBONE|DICT|INTERRES
    71   34  104 1    
    72   35   36 2    
    73   37   38 2    
    74   37   39 am   BACKBONE|DICT|INTERRES
    75   39   40 1    
    76   39  105 1    
    77   40   41 1    
    78   40   42 1    
    79   40  106 1    
    80   41  107 1    
    81   41  108 1    
    82   41  109 1    
    83   42   43 2    
    84   42   44 am   BACKBONE|DICT|INTERRES
    85   44   45 1    
    86   44  110 1    
    87   45   46 1    
    88   45   47 1    
    89   45  111 1    
    90   46  112 1    
    91   46  113 1    
    92   46  114 1    
    93   47   48 2    
    94   47   49 am   BACKBONE|DICT|INTERRES
    95   49   50 1    
    96   49  115 1    
    97   50   51 1    
    98   50   52 1    
    99   50  116 1    
   100   51  117 1    
   101   51  118 1    
   102   51  119 1    
   103   52   53 2    
   104   52   54 am   BACKBONE|DICT|INTERRES
   105   54   55 1    
   106   54  120 1    
   107   55   56 1    
   108   55   57 1    
   109   55  121 1    
   110   56  122 1    
   111   56  123 1    
   112   56  124 1    
   113   57   58 2    
   114   57   59 am   BACKBONE|DICT|INTERRES
   115   59   60 1    
   116   59  125 1    
   117   60   61 1    
   118   60   62 1    
   119   60  126 1    
   120   61  127 1    
   121   61  128 1    
   122   61  129 1    
   123   62   63 2    
   124   62   64 am   BACKBONE|DICT|INTERRES
   125   64   65 1    
   126   64  130 1    
   127   65   66 1    
   128   65   69 1    
   129   65  131 1    
   130   66   67 am   BACKBONE|DICT|INTERRES
   131   66   68 2    
   132   67  132 1    
   133   67  133 1    
   134   69   70 1    
   135   69  134 1    
   136   69  135 1    
   137   70   71 1    
   138   71  136 1    
   139   71  137 1    
@<TRIPOS>SUBSTRUCTURE
     1 UNK         1 GROUP             0       ****    0 ROOT    
