@<TRIPOS>MOLECULE
3R136
137   139    1
SMALL
USER_CHARGES


@<TRIPOS>ATOM
      1 CA         26.7791   18.9463   -1.9624 C.3       0 UNK        -0.1979 
      2 C          26.7691   20.2148   -1.1226 C.2       0 UNK         0.4864 
      3 O          26.4679   21.2918   -1.6415 O.2       0 UNK        -0.5359 
      4 N          27.0901   20.1005    0.1730 N.am      1 UNK        -0.4318 
      5 CA         27.1364   21.2035    1.1387 C.3       1 UNK         0.0824 
      6 C6         28.0420   20.8680    2.3543 C.3       12 UNK        -0.0944 
      7 S7         29.8103   20.9908    1.9319 S.3       12 UNK        -0.2672 
      8 C8         30.0638   22.7483    2.3279 C.3       12 UNK         0.0333 
      9 C9         31.4689   23.2233    2.0012 C.ar      12 UNK        -0.0807 
     10 C10        32.3940   23.4377    3.0253 C.ar      12 UNK        -0.0894 
     11 C11        33.6704   23.9289    2.7372 C.ar      12 UNK        -0.0804 
     12 C12        34.0214   24.2023    1.4114 C.ar      12 UNK        -0.0824 
     13 C13        33.1095   23.9731    0.3757 C.ar      12 UNK        -0.0762 
     14 C14        31.8334   23.4857    0.6781 C.ar      12 UNK        -0.0782 
     15 C15        33.5203   24.1981   -1.0733 C.3       12 UNK         0.0230 
     16 S16        32.4339   25.3720   -1.9425 S.3       12 UNK        -0.2608 
     17 C17        32.9682   26.9790   -1.2668 C.3       12 UNK        -0.0989 
     18 CA         31.7716   27.7767   -0.6933 C.3       5 UNK         0.0716 
     19 N          31.2328   27.1591    0.5288 N.am      5 UNK        -0.4135 
     20 C          30.0875   27.5131    1.1273 C.2       4 UNK         0.5031 
     21 O          29.3956   28.4694    0.7718 O.2       4 UNK        -0.5229 
     22 CA         29.6757   26.7035    2.3673 C.3       4 UNK         0.0329 
     23 CB         30.2733   27.3307    3.6370 C.3       4 UNK        -0.2001 
     24 N          28.2177   26.6367    2.5019 N.am      4 UNK        -0.4303 
     25 C          27.4203   25.9392    1.6838 C.2       3 UNK         0.5044 
     26 O          27.8334   25.2050    0.7803 O.2       3 UNK        -0.5152 
     27 CA         25.9081   26.0812    1.9043 C.3       3 UNK         0.0319 
     28 CB         25.3713   27.3828    1.2819 C.3       3 UNK        -0.2001 
     29 N          25.2760   24.9273    1.2784 N.am      3 UNK        -0.4354 
     30 C          24.0944   24.3786    1.5819 C.2       2 UNK         0.4964 
     31 O          23.2942   24.8618    2.3833 O.2       2 UNK        -0.5047 
     32 CA         23.7711   23.0390    0.8901 C.3       2 UNK         0.0288 
     33 CB         23.0132   23.2752   -0.4262 C.3       2 UNK        -0.2113 
     34 N          24.9860   22.2618    0.6204 N.am      2 UNK        -0.4145 
     35 C          25.7218   21.6565    1.5625 C.2       1 UNK         0.5006 
     36 O          25.3331   21.4865    2.7203 O.2       1 UNK        -0.5103 
     37 C          32.1228   29.2764   -0.5563 C.2       5 UNK         0.5055 
     38 O          32.2100   29.9605   -1.5774 O.2       5 UNK        -0.5220 
     39 N          32.2934   29.7750    0.6771 N.am      6 UNK        -0.4450 
     40 CA         32.4507   31.2023    0.9746 C.3       6 UNK         0.0367 
     41 CB         33.0445   31.3653    2.3820 C.3       6 UNK        -0.1929 
     42 C          31.1453   32.0123    0.8202 C.2       6 UNK         0.5070 
     43 O          31.2216   33.2347    0.6904 O.2       6 UNK        -0.5237 
     44 N          29.9862   31.3330    0.8182 N.am      7 UNK        -0.4739 
     45 CA         28.6164   31.8125    0.5798 C.3       7 UNK         0.0276 
     46 CB         28.4628   32.3643   -0.8510 C.3       7 UNK        -0.1927 
     47 C          28.0710   32.8059    1.6205 C.2       7 UNK         0.5013 
     48 O          27.0077   32.5606    2.1909 O.2       7 UNK        -0.5193 
     49 N          28.7929   33.9087    1.8427 N.am      8 UNK        -0.4253 
     50 CA         28.4441   34.9790    2.7810 C.3       8 UNK         0.0242 
     51 CB         29.1398   36.2738    2.3283 C.3       8 UNK        -0.2000 
     52 C          28.8106   34.6533    4.2407 C.2       8 UNK         0.4948 
     53 O          28.3903   35.3808    5.1419 O.2       8 UNK        -0.5275 
     54 N          29.5930   33.5910    4.4521 N.am      9 UNK        -0.4246 
     55 CA         30.0877   33.1139    5.7374 C.3       9 UNK         0.0261 
     56 CB         31.2994   33.9645    6.1728 C.3       9 UNK        -0.1959 
     57 C          30.4574   31.6321    5.5845 C.2       9 UNK         0.5033 
     58 O          30.2966   31.0683    4.4975 O.2       9 UNK        -0.5390 
     59 N          30.9632   31.0309    6.6681 N.am      10 UNK        -0.4215 
     60 CA         31.5657   29.6965    6.6649 C.3       10 UNK         0.0240 
     61 CB         31.7421   29.2220    8.1170 C.3       10 UNK        -0.1982 
     62 C          32.9172   29.6915    5.9269 C.2       10 UNK         0.4970 
     63 O          33.5763   30.7300    5.8369 O.2       10 UNK        -0.4916 
     64 N          33.3120   28.5121    5.4370 N.am      11 UNK        -0.4279 
     65 CA         34.5698   28.2756    4.7091 C.3       11 UNK         0.1003 
     66 C          35.8737   28.3900    5.5561 C.2       11 UNK         0.5709 
     67 N          35.8075   28.4404    6.8815 N.am      11 UNK        -0.7358 
     68 O          36.9655   28.4453    4.9951 O.2       11 UNK        -0.4999 
     69 C69        34.5094   26.9477    3.9082 C.3       12 UNK        -0.0954 
     70 S70        34.1804   25.4953    4.9642 S.3       12 UNK        -0.2268 
     71 C71        34.6728   24.1359    3.8626 C.3       12 UNK         0.0203 
     72 H72        25.7888   18.7650   -2.3793 H         1 UNK         0.0888 
     73 H73        27.4833   19.0492   -2.7876 H         1 UNK         0.0888 
     74 H74        27.0669   18.0725   -1.3780 H         1 UNK         0.0888 
     75 H75        27.3154   19.1890    0.5457 H         1 UNK         0.3017 
     76 H76        27.5751   22.0688    0.6356 H         1 UNK         0.0873 
     77 H77        27.8556   21.5418    3.1932 H         1 UNK         0.0745 
     78 H78        27.8320   19.8652    2.7307 H         1 UNK         0.0745 
     79 H79        29.3479   23.3451    1.7646 H         1 UNK         0.0705 
     80 H80        29.8413   22.9180    3.3827 H         1 UNK         0.0705 
     81 H81        32.1209   23.2322    4.0516 H         1 UNK         0.1334 
     82 H82        35.0128   24.5707    1.1849 H         1 UNK         0.1417 
     83 H83        31.1226   23.3082   -0.1184 H         1 UNK         0.1562 
     84 H84        33.4831   23.2408   -1.5950 H         1 UNK         0.0748 
     85 H85        34.5533   24.5424   -1.1450 H         1 UNK         0.0748 
     86 H86        33.4434   27.5209   -2.0875 H         1 UNK         0.0940 
     87 H87        33.7417   26.8414   -0.5089 H         1 UNK         0.0940 
     88 H88        30.9677   27.7430   -1.4324 H         1 UNK         0.0703 
     89 H89        31.7376   26.3551    0.8741 H         1 UNK         0.3081 
     90 H90        30.0595   25.6879    2.2665 H         1 UNK         0.0719 
     91 H91        29.9311   28.3570    3.7805 H         1 UNK         0.0809 
     92 H92        30.0070   26.7588    4.5260 H         1 UNK         0.0809 
     93 H93        31.3613   27.3541    3.5842 H         1 UNK         0.0809 
     94 H94        27.7991   27.2449    3.1903 H         1 UNK         0.2990 
     95 H95        25.7054   26.0670    2.9773 H         1 UNK         0.0690 
     96 H96        25.8440   28.2576    1.7305 H         1 UNK         0.0788 
     97 H97        24.2963   27.4823    1.4335 H         1 UNK         0.0788 
     98 H98        25.5633   27.4229    0.2088 H         1 UNK         0.0788 
     99 H99        25.8871   24.4534    0.6241 H         1 UNK         0.2993 
    100 H100       23.1296   22.4630    1.5609 H         1 UNK         0.0949 
    101 H101       22.0941   23.8362   -0.2512 H         1 UNK         0.0767 
    102 H102       23.6110   23.8416   -1.1416 H         1 UNK         0.0767 
    103 H103       22.7326   22.3321   -0.8958 H         1 UNK         0.0767 
    104 H104       25.3537   22.2710   -0.3273 H         1 UNK         0.3013 
    105 H105       32.2092   29.1504    1.4645 H         1 UNK         0.3121 
    106 H106       33.1647   31.6236    0.2636 H         1 UNK         0.0774 
    107 H107       33.0929   32.4153    2.6741 H         1 UNK         0.0815 
    108 H108       32.4512   30.8453    3.1318 H         1 UNK         0.0815 
    109 H109       34.0596   30.9719    2.4296 H         1 UNK         0.0815 
    110 H110       30.0369   30.3255    0.9413 H         1 UNK         0.2987 
    111 H111       27.9873   30.9230    0.6492 H         1 UNK         0.0949 
    112 H112       29.0786   33.2483   -1.0189 H         1 UNK         0.0806 
    113 H113       28.7431   31.6165   -1.5931 H         1 UNK         0.0806 
    114 H114       27.4283   32.6469   -1.0506 H         1 UNK         0.0806 
    115 H115       29.6880   33.9773    1.3607 H         1 UNK         0.3010 
    116 H116       27.3644   35.1393    2.7451 H         1 UNK         0.0829 
    117 H117       28.8398   36.5529    1.3180 H         1 UNK         0.0813 
    118 H118       28.8820   37.1075    2.9831 H         1 UNK         0.0813 
    119 H119       30.2259   36.1725    2.3403 H         1 UNK         0.0813 
    120 H120       29.8282   32.9858    3.6746 H         1 UNK         0.3038 
    121 H121       29.2913   33.1906    6.4806 H         1 UNK         0.0769 
    122 H122       32.1325   33.8585    5.4764 H         1 UNK         0.0811 
    123 H123       31.6600   33.6746    7.1599 H         1 UNK         0.0811 
    124 H124       31.0450   35.0231    6.2285 H         1 UNK         0.0811 
    125 H125       31.0828   31.5745    7.5102 H         1 UNK         0.3204 
    126 H126       30.8845   29.0140    6.1522 H         1 UNK         0.0748 
    127 H127       32.1465   28.2095    8.1546 H         1 UNK         0.0771 
    128 H128       32.4242   29.8666    8.6734 H         1 UNK         0.0771 
    129 H129       30.7894   29.2055    8.6470 H         1 UNK         0.0771 
    130 H130       32.7470   27.6916    5.5993 H         1 UNK         0.2980 
    131 H131       34.6489   29.0757    3.9711 H         1 UNK         0.0545 
    132 H132       34.9183   28.3942    7.3506 H         1 UNK         0.3459 
    133 H133       36.6585   28.5195    7.4153 H         1 UNK         0.3459 
    134 H134       33.7233   27.0041    3.1543 H         1 UNK         0.0616 
    135 H135       35.4367   26.7899    3.3543 H         1 UNK         0.0616 
    136 H136       35.6738   24.3261    3.4722 H         1 UNK         0.0634 
    137 H137       34.7426   23.2187    4.4490 H         1 UNK         0.0634 
@<TRIPOS>BOND
     1    1    2 1    
     2    1   72 1    
     3    1   73 1    
     4    1   74 1    
     5    2    3 2    
     6    2    4 am   BACKBONE|DICT|INTERRES
     7    4    5 1    
     8    4   75 1    
     9    5    6 1    
    10    5   35 1    
    11    5   76 1    
    12    6    7 1    
    13    6   77 1    
    14    6   78 1    
    15    7    8 1    
    16    8    9 1    
    17    8   79 1    
    18    8   80 1    
    19    9   10 ar   
    20    9   14 ar   
    21   10   11 ar   
    22   10   81 1    
    23   11   12 ar   
    24   11   71 1    
    25   12   13 ar   
    26   12   82 1    
    27   13   14 ar   
    28   13   15 1    
    29   14   83 1    
    30   15   16 1    
    31   15   84 1    
    32   15   85 1    
    33   16   17 1    
    34   17   18 1    
    35   17   86 1    
    36   17   87 1    
    37   18   19 1    
    38   18   37 1    
    39   18   88 1    
    40   19   20 am   BACKBONE|DICT|INTERRES
    41   19   89 1    
    42   20   21 2    
    43   20   22 1    
    44   22   23 1    
    45   22   24 1    
    46   22   90 1    
    47   23   91 1    
    48   23   92 1    
    49   23   93 1    
    50   24   25 am   BACKBONE|DICT|INTERRES
    51   24   94 1    
    52   25   26 2    
    53   25   27 1    
    54   27   28 1    
    55   27   29 1    
    56   27   95 1    
    57   28   96 1    
    58   28   97 1    
    59   28   98 1    
    60   29   30 am   BACKBONE|DICT|INTERRES
    61   29   99 1    
    62   30   31 2    
    63   30   32 1    
    64   32   33 1    
    65   32   34 1    
    66   32  100 1    
    67   33  101 1    
    68   33  102 1    
    69   33  103 1    
    70   34   35 am   BACKBONE|DICT|INTERRES
    71   34  104 1    
    72   35   36 2    
    73   37   38 2    
    74   37   39 am   BACKBONE|DICT|INTERRES
    75   39   40 1    
    76   39  105 1    
    77   40   41 1    
    78   40   42 1    
    79   40  106 1    
    80   41  107 1    
    81   41  108 1    
    82   41  109 1    
    83   42   43 2    
    84   42   44 am   BACKBONE|DICT|INTERRES
    85   44   45 1    
    86   44  110 1    
    87   45   46 1    
    88   45   47 1    
    89   45  111 1    
    90   46  112 1    
    91   46  113 1    
    92   46  114 1    
    93   47   48 2    
    94   47   49 am   BACKBONE|DICT|INTERRES
    95   49   50 1    
    96   49  115 1    
    97   50   51 1    
    98   50   52 1    
    99   50  116 1    
   100   51  117 1    
   101   51  118 1    
   102   51  119 1    
   103   52   53 2    
   104   52   54 am   BACKBONE|DICT|INTERRES
   105   54   55 1    
   106   54  120 1    
   107   55   56 1    
   108   55   57 1    
   109   55  121 1    
   110   56  122 1    
   111   56  123 1    
   112   56  124 1    
   113   57   58 2    
   114   57   59 am   BACKBONE|DICT|INTERRES
   115   59   60 1    
   116   59  125 1    
   117   60   61 1    
   118   60   62 1    
   119   60  126 1    
   120   61  127 1    
   121   61  128 1    
   122   61  129 1    
   123   62   63 2    
   124   62   64 am   BACKBONE|DICT|INTERRES
   125   64   65 1    
   126   64  130 1    
   127   65   66 1    
   128   65   69 1    
   129   65  131 1    
   130   66   67 am   BACKBONE|DICT|INTERRES
   131   66   68 2    
   132   67  132 1    
   133   67  133 1    
   134   69   70 1    
   135   69  134 1    
   136   69  135 1    
   137   70   71 1    
   138   71  136 1    
   139   71  137 1    
@<TRIPOS>SUBSTRUCTURE
     1 UNK         1 GROUP             0       ****    0 ROOT    
