@<TRIPOS>MOLECULE
3R136
137   139    1
SMALL
USER_CHARGES


@<TRIPOS>ATOM
      1 CA         31.0241   25.0078   -3.2596 C.3       0 UNK        -0.1979 
      2 C          30.1791   24.6850   -2.0377 C.2       0 UNK         0.4864 
      3 O          29.3846   25.5228   -1.6101 O.2       0 UNK        -0.5359 
      4 N          30.3266   23.4707   -1.4890 N.am      1 UNK        -0.4318 
      5 CA         29.7054   22.9541   -0.2552 C.3       1 UNK         0.0824 
      6 C6         30.0898   21.4700   -0.0312 C.3       12 UNK        -0.0944 
      7 S7         31.8869   21.2350    0.1869 S.3       12 UNK        -0.2672 
      8 C8         31.9815   20.5981    1.8912 C.3       12 UNK         0.0333 
      9 C9         31.8594   21.7059    2.9284 C.ar      12 UNK        -0.0807 
     10 C10        33.0088   22.3418    3.4110 C.ar      12 UNK        -0.0894 
     11 C11        32.9090   23.3362    4.3886 C.ar      12 UNK        -0.0804 
     12 C12        31.6537   23.6872    4.8883 C.ar      12 UNK        -0.0824 
     13 C13        30.4960   23.0891    4.3867 C.ar      12 UNK        -0.0762 
     14 C14        30.6047   22.0875    3.4175 C.ar      12 UNK        -0.0782 
     15 C15        29.1300   23.5419    4.8798 C.3       12 UNK         0.0230 
     16 S16        28.5119   24.9585    3.9154 S.3       12 UNK        -0.2608 
     17 C17        29.5803   26.3130    4.5291 C.3       12 UNK        -0.0989 
     18 CA         29.1779   27.7187    4.0186 C.3       5 UNK         0.0716 
     19 N          29.2316   27.7747    2.5585 N.am      5 UNK        -0.4135 
     20 C          30.0522   28.5276    1.8193 C.2       4 UNK         0.5031 
     21 O          30.9582   29.2251    2.2828 O.2       4 UNK        -0.5229 
     22 CA         29.8332   28.5048    0.2919 C.3       4 UNK         0.0329 
     23 CB         31.0806   27.9705   -0.4284 C.3       4 UNK        -0.2001 
     24 N          28.6572   27.7534   -0.1769 N.am      4 UNK        -0.4303 
     25 C          27.3824   28.1024    0.0437 C.2       3 UNK         0.5044 
     26 O          27.0649   29.0122    0.8097 O.2       3 UNK        -0.5152 
     27 CA         26.2640   27.3320   -0.6709 C.3       3 UNK         0.0319 
     28 CB         25.8644   28.0559   -1.9683 C.3       3 UNK        -0.2001 
     29 N          26.5745   25.9264   -0.9603 N.am      3 UNK        -0.4354 
     30 C          25.6474   24.9532   -0.9550 C.2       2 UNK         0.4964 
     31 O          24.4715   25.1386   -0.6371 O.2       2 UNK        -0.5047 
     32 CA         26.0584   23.5363   -1.4035 C.3       2 UNK         0.0288 
     33 CB         25.6016   23.2820   -2.8500 C.3       2 UNK        -0.2113 
     34 N          27.4924   23.2709   -1.3098 N.am      2 UNK        -0.4145 
     35 C          28.1688   23.1092   -0.1649 C.2       1 UNK         0.5006 
     36 O          27.6266   23.0770    0.9401 O.2       1 UNK        -0.5103 
     37 C          27.8042   28.1752    4.5673 C.2       5 UNK         0.5055 
     38 O          27.5974   28.0964    5.7803 O.2       5 UNK        -0.5220 
     39 N          26.8886   28.6247    3.6933 N.am      6 UNK        -0.4450 
     40 CA         25.5343   29.0595    4.0463 C.3       6 UNK         0.0367 
     41 CB         24.5085   28.1053    3.4103 C.3       6 UNK        -0.1929 
     42 C          25.2856   30.5063    3.5996 C.2       6 UNK         0.5070 
     43 O          24.8355   31.3217    4.4044 O.2       6 UNK        -0.5237 
     44 N          25.5965   30.8068    2.3323 N.am      7 UNK        -0.4739 
     45 CA         25.5052   32.1416    1.7321 C.3       7 UNK         0.0276 
     46 CB         25.1661   31.9801    0.2402 C.3       7 UNK        -0.1927 
     47 C          26.8053   32.9499    1.9024 C.2       7 UNK         0.5013 
     48 O          26.8299   34.1365    1.5729 O.2       7 UNK        -0.5193 
     49 N          27.8580   32.2952    2.3990 N.am      8 UNK        -0.4253 
     50 CA         29.1862   32.8277    2.6693 C.3       8 UNK         0.0242 
     51 CB         30.0245   32.8047    1.3739 C.3       8 UNK        -0.2000 
     52 C          29.8111   31.9725    3.7816 C.2       8 UNK         0.4948 
     53 O          29.1352   31.1041    4.3390 O.2       8 UNK        -0.5275 
     54 N          31.0909   32.2157    4.0723 N.am      9 UNK        -0.4246 
     55 CA         31.9122   31.4013    4.9632 C.3       9 UNK         0.0261 
     56 CB         31.9315   32.0215    6.3737 C.3       9 UNK        -0.1959 
     57 C          33.3005   31.2910    4.3249 C.2       9 UNK         0.5033 
     58 O          34.2561   31.8948    4.8154 O.2       9 UNK        -0.5390 
     59 N          33.3683   30.5819    3.1901 N.am      10 UNK        -0.4215 
     60 CA         34.5755   30.4659    2.3638 C.3       10 UNK         0.0240 
     61 CB         34.1885   29.9115    0.9851 C.3       10 UNK        -0.1982 
     62 C          35.6861   29.5995    2.9847 C.2       10 UNK         0.4970 
     63 O          36.8554   29.7992    2.6521 O.2       10 UNK        -0.4916 
     64 N          35.3047   28.6405    3.8364 N.am      11 UNK        -0.4279 
     65 CA         36.2050   27.6848    4.4975 C.3       11 UNK         0.1003 
     66 C          37.1823   28.3661    5.4939 C.2       11 UNK         0.5709 
     67 N          38.4223   27.9009    5.5647 N.am      11 UNK        -0.7358 
     68 O          36.8140   29.2774    6.2328 O.2       11 UNK        -0.4999 
     69 C69        35.4104   26.5547    5.2001 C.3       12 UNK        -0.0954 
     70 S70        34.2977   25.6729    4.0575 S.3       12 UNK        -0.2268 
     71 C71        34.1423   24.0659    4.8915 C.3       12 UNK         0.0203 
     72 H72        31.6741   25.8566   -3.0493 H         1 UNK         0.0888 
     73 H73        31.6493   24.1665   -3.5581 H         1 UNK         0.0888 
     74 H74        30.3822   25.2701   -4.1000 H         1 UNK         0.0888 
     75 H75        30.9978   22.8390   -1.9032 H         1 UNK         0.3017 
     76 H76        30.1138   23.5425    0.5695 H         1 UNK         0.0873 
     77 H77        29.5673   21.0538    0.8310 H         1 UNK         0.0745 
     78 H78        29.7716   20.8650   -0.8825 H         1 UNK         0.0745 
     79 H79        31.2149   19.8381    2.0498 H         1 UNK         0.0705 
     80 H80        32.9369   20.0858    2.0147 H         1 UNK         0.0705 
     81 H81        33.9797   22.0662    3.0221 H         1 UNK         0.1334 
     82 H82        31.5777   24.4586    5.6422 H         1 UNK         0.1417 
     83 H83        29.7086   21.6143    3.0413 H         1 UNK         0.1562 
     84 H84        29.1717   23.8039    5.9381 H         1 UNK         0.0748 
     85 H85        28.4138   22.7230    4.7971 H         1 UNK         0.0748 
     86 H86        30.6036   26.1142    4.2090 H         1 UNK         0.0940 
     87 H87        29.5978   26.2918    5.6204 H         1 UNK         0.0940 
     88 H88        29.8969   28.4304    4.4290 H         1 UNK         0.0703 
     89 H89        28.5655   27.1895    2.0762 H         1 UNK         0.3081 
     90 H90        29.6909   29.5430   -0.0144 H         1 UNK         0.0719 
     91 H91        31.9444   28.6022   -0.2313 H         1 UNK         0.0809 
     92 H92        30.9406   27.9552   -1.5093 H         1 UNK         0.0809 
     93 H93        31.3300   26.9591   -0.1053 H         1 UNK         0.0809 
     94 H94        28.8636   26.9610   -0.7849 H         1 UNK         0.2990 
     95 H95        25.4105   27.3727    0.0091 H         1 UNK         0.0690 
     96 H96        24.9765   27.6082   -2.4150 H         1 UNK         0.0788 
     97 H97        26.6649   28.0234   -2.7084 H         1 UNK         0.0788 
     98 H98        25.6346   29.1056   -1.7784 H         1 UNK         0.0788 
     99 H99        27.5308   25.7001   -1.2229 H         1 UNK         0.2993 
    100 H100       25.5397   22.8293   -0.7520 H         1 UNK         0.0949 
    101 H101       24.5262   23.4353   -2.9530 H         1 UNK         0.0767 
    102 H102       26.0953   23.9542   -3.5531 H         1 UNK         0.0767 
    103 H103       25.8112   22.2575   -3.1587 H         1 UNK         0.0767 
    104 H104       28.0190   23.2959   -2.1706 H         1 UNK         0.3013 
    105 H105       27.1471   28.7182    2.7165 H         1 UNK         0.3121 
    106 H106       25.3921   29.0305    5.1287 H         1 UNK         0.0774 
    107 H107       23.4895   28.4116    3.6505 H         1 UNK         0.0815 
    108 H108       24.5943   28.0784    2.3236 H         1 UNK         0.0815 
    109 H109       24.6365   27.0876    3.7796 H         1 UNK         0.0815 
    110 H110       25.9946   30.0848    1.7334 H         1 UNK         0.2987 
    111 H111       24.7016   32.7058    2.2106 H         1 UNK         0.0949 
    112 H112       24.2310   31.4371    0.1025 H         1 UNK         0.0806 
    113 H113       25.0504   32.9512   -0.2430 H         1 UNK         0.0806 
    114 H114       25.9491   31.4404   -0.2944 H         1 UNK         0.0806 
    115 H115       27.7223   31.3497    2.7337 H         1 UNK         0.3010 
    116 H116       29.0971   33.8517    3.0379 H         1 UNK         0.0829 
    117 H117       29.5238   33.3402    0.5670 H         1 UNK         0.0813 
    118 H118       30.9946   33.2815    1.5148 H         1 UNK         0.0813 
    119 H119       30.2068   31.7850    1.0328 H         1 UNK         0.0813 
    120 H120       31.5832   32.9365    3.5623 H         1 UNK         0.3038 
    121 H121       31.5086   30.3884    5.0339 H         1 UNK         0.0769 
    122 H122       32.3097   33.0445    6.3612 H         1 UNK         0.0811 
    123 H123       32.5684   31.4438    7.0448 H         1 UNK         0.0811 
    124 H124       30.9323   32.0397    6.8091 H         1 UNK         0.0811 
    125 H125       32.5233   30.1249    2.8459 H         1 UNK         0.3204 
    126 H126       34.9834   31.4693    2.2233 H         1 UNK         0.0748 
    127 H127       35.0477   29.8996    0.3130 H         1 UNK         0.0771 
    128 H128       33.8209   28.8877    1.0616 H         1 UNK         0.0771 
    129 H129       33.4150   30.5180    0.5132 H         1 UNK         0.0771 
    130 H130       34.3243   28.5469    4.0516 H         1 UNK         0.2980 
    131 H131       36.8049   27.2258    3.7088 H         1 UNK         0.0545 
    132 H132       38.7310   27.1449    4.9733 H         1 UNK         0.3459 
    133 H133       39.0655   28.3198    6.2181 H         1 UNK         0.3459 
    134 H134       36.0987   25.8306    5.6407 H         1 UNK         0.0616 
    135 H135       34.8119   26.9539    6.0213 H         1 UNK         0.0616 
    136 H136       35.0442   23.4764    4.7195 H         1 UNK         0.0634 
    137 H137       34.0645   24.2154    5.9697 H         1 UNK         0.0634 
@<TRIPOS>BOND
     1    1    2 1    
     2    1   72 1    
     3    1   73 1    
     4    1   74 1    
     5    2    3 2    
     6    2    4 am   BACKBONE|DICT|INTERRES
     7    4    5 1    
     8    4   75 1    
     9    5    6 1    
    10    5   35 1    
    11    5   76 1    
    12    6    7 1    
    13    6   77 1    
    14    6   78 1    
    15    7    8 1    
    16    8    9 1    
    17    8   79 1    
    18    8   80 1    
    19    9   10 ar   
    20    9   14 ar   
    21   10   11 ar   
    22   10   81 1    
    23   11   12 ar   
    24   11   71 1    
    25   12   13 ar   
    26   12   82 1    
    27   13   14 ar   
    28   13   15 1    
    29   14   83 1    
    30   15   16 1    
    31   15   84 1    
    32   15   85 1    
    33   16   17 1    
    34   17   18 1    
    35   17   86 1    
    36   17   87 1    
    37   18   19 1    
    38   18   37 1    
    39   18   88 1    
    40   19   20 am   BACKBONE|DICT|INTERRES
    41   19   89 1    
    42   20   21 2    
    43   20   22 1    
    44   22   23 1    
    45   22   24 1    
    46   22   90 1    
    47   23   91 1    
    48   23   92 1    
    49   23   93 1    
    50   24   25 am   BACKBONE|DICT|INTERRES
    51   24   94 1    
    52   25   26 2    
    53   25   27 1    
    54   27   28 1    
    55   27   29 1    
    56   27   95 1    
    57   28   96 1    
    58   28   97 1    
    59   28   98 1    
    60   29   30 am   BACKBONE|DICT|INTERRES
    61   29   99 1    
    62   30   31 2    
    63   30   32 1    
    64   32   33 1    
    65   32   34 1    
    66   32  100 1    
    67   33  101 1    
    68   33  102 1    
    69   33  103 1    
    70   34   35 am   BACKBONE|DICT|INTERRES
    71   34  104 1    
    72   35   36 2    
    73   37   38 2    
    74   37   39 am   BACKBONE|DICT|INTERRES
    75   39   40 1    
    76   39  105 1    
    77   40   41 1    
    78   40   42 1    
    79   40  106 1    
    80   41  107 1    
    81   41  108 1    
    82   41  109 1    
    83   42   43 2    
    84   42   44 am   BACKBONE|DICT|INTERRES
    85   44   45 1    
    86   44  110 1    
    87   45   46 1    
    88   45   47 1    
    89   45  111 1    
    90   46  112 1    
    91   46  113 1    
    92   46  114 1    
    93   47   48 2    
    94   47   49 am   BACKBONE|DICT|INTERRES
    95   49   50 1    
    96   49  115 1    
    97   50   51 1    
    98   50   52 1    
    99   50  116 1    
   100   51  117 1    
   101   51  118 1    
   102   51  119 1    
   103   52   53 2    
   104   52   54 am   BACKBONE|DICT|INTERRES
   105   54   55 1    
   106   54  120 1    
   107   55   56 1    
   108   55   57 1    
   109   55  121 1    
   110   56  122 1    
   111   56  123 1    
   112   56  124 1    
   113   57   58 2    
   114   57   59 am   BACKBONE|DICT|INTERRES
   115   59   60 1    
   116   59  125 1    
   117   60   61 1    
   118   60   62 1    
   119   60  126 1    
   120   61  127 1    
   121   61  128 1    
   122   61  129 1    
   123   62   63 2    
   124   62   64 am   BACKBONE|DICT|INTERRES
   125   64   65 1    
   126   64  130 1    
   127   65   66 1    
   128   65   69 1    
   129   65  131 1    
   130   66   67 am   BACKBONE|DICT|INTERRES
   131   66   68 2    
   132   67  132 1    
   133   67  133 1    
   134   69   70 1    
   135   69  134 1    
   136   69  135 1    
   137   70   71 1    
   138   71  136 1    
   139   71  137 1    
@<TRIPOS>SUBSTRUCTURE
     1 UNK         1 GROUP             0       ****    0 ROOT    
